dataset/hoip2d/hoip2d_4.xyz
 OpenBabel03142210543D

152 52  0  0  0  0  0  0  0  0999 V2000
    0.5568    0.6746    0.5973 H   0  0  0  0  0  0  0  0  0  0  0  0
    0.9432    0.3254    0.0973 H   0  0  0  0  0  0  0  0  0  0  0  0
    0.4432    0.1746    0.9027 H   0  0  0  0  0  0  0  0  0  0  0  0
    0.0568    0.8254    0.4027 H   0  0  0  0  0  0  0  0  0  0  0  0
    0.4432    0.3254    0.4027 H   0  0  0  0  0  0  0  0  0  0  0  0
    0.0568    0.6746    0.9027 H   0  0  0  0  0  0  0  0  0  0  0  0
    0.5568    0.8254    0.0973 H   0  0  0  0  0  0  0  0  0  0  0  0
    0.9432    0.1746    0.5973 H   0  0  0  0  0  0  0  0  0  0  0  0
    0.5630    0.5582    0.5576 H   0  0  0  0  0  0  0  0  0  0  0  0
    0.9370    0.4418    0.0576 H   0  0  0  0  0  0  0  0  0  0  0  0
    0.4370    0.0582    0.9424 H   0  0  0  0  0  0  0  0  0  0  0  0
    0.0630    0.9418    0.4424 H   0  0  0  0  0  0  0  0  0  0  0  0
    0.4370    0.4418    0.4424 H   0  0  0  0  0  0  0  0  0  0  0  0
    0.0630    0.5582    0.9424 H   0  0  0  0  0  0  0  0  0  0  0  0
    0.5630    0.9418    0.0576 H   0  0  0  0  0  0  0  0  0  0  0  0
    0.9370    0.0582    0.5576 H   0  0  0  0  0  0  0  0  0  0  0  0
    0.6757    0.5446    0.5975 H   0  0  0  0  0  0  0  0  0  0  0  0
    0.8243    0.4554    0.0975 H   0  0  0  0  0  0  0  0  0  0  0  0
    0.3243    0.0446    0.9025 H   0  0  0  0  0  0  0  0  0  0  0  0
    0.1757    0.9554    0.4025 H   0  0  0  0  0  0  0  0  0  0  0  0
    0.3243    0.4554    0.4025 H   0  0  0  0  0  0  0  0  0  0  0  0
    0.1757    0.5446    0.9025 H   0  0  0  0  0  0  0  0  0  0  0  0
    0.6757    0.9554    0.0975 H   0  0  0  0  0  0  0  0  0  0  0  0
    0.8243    0.0446    0.5975 H   0  0  0  0  0  0  0  0  0  0  0  0
    0.4787    0.3538    0.6041 H   0  0  0  0  0  0  0  0  0  0  0  0
    0.0213    0.6462    0.1041 H   0  0  0  0  0  0  0  0  0  0  0  0
    0.5213    0.8538    0.8959 H   0  0  0  0  0  0  0  0  0  0  0  0
    0.9787    0.1462    0.3959 H   0  0  0  0  0  0  0  0  0  0  0  0
    0.5213    0.6462    0.3959 H   0  0  0  0  0  0  0  0  0  0  0  0
    0.9787    0.3538    0.8959 H   0  0  0  0  0  0  0  0  0  0  0  0
    0.4787    0.1462    0.1041 H   0  0  0  0  0  0  0  0  0  0  0  0
    0.0213    0.8538    0.6041 H   0  0  0  0  0  0  0  0  0  0  0  0
    0.3546    0.4977    0.6068 H   0  0  0  0  0  0  0  0  0  0  0  0
    0.1454    0.5023    0.1068 H   0  0  0  0  0  0  0  0  0  0  0  0
    0.6454    0.9977    0.8932 H   0  0  0  0  0  0  0  0  0  0  0  0
    0.8546    0.0023    0.3932 H   0  0  0  0  0  0  0  0  0  0  0  0
    0.6454    0.5023    0.3932 H   0  0  0  0  0  0  0  0  0  0  0  0
    0.8546    0.4977    0.8932 H   0  0  0  0  0  0  0  0  0  0  0  0
    0.3546    0.0023    0.1068 H   0  0  0  0  0  0  0  0  0  0  0  0
    0.1454    0.9977    0.6068 H   0  0  0  0  0  0  0  0  0  0  0  0
    0.5930    0.4360    0.6783 H   0  0  0  0  0  0  0  0  0  0  0  0
    0.9070    0.5640    0.1783 H   0  0  0  0  0  0  0  0  0  0  0  0
    0.4070    0.9360    0.8217 H   0  0  0  0  0  0  0  0  0  0  0  0
    0.0930    0.0640    0.3217 H   0  0  0  0  0  0  0  0  0  0  0  0
    0.4070    0.5640    0.3217 H   0  0  0  0  0  0  0  0  0  0  0  0
    0.0930    0.4360    0.8217 H   0  0  0  0  0  0  0  0  0  0  0  0
    0.5930    0.0640    0.1783 H   0  0  0  0  0  0  0  0  0  0  0  0
    0.9070    0.9360    0.6783 H   0  0  0  0  0  0  0  0  0  0  0  0
    0.4757    0.5863    0.6807 H   0  0  0  0  0  0  0  0  0  0  0  0
    0.0243    0.4137    0.1807 H   0  0  0  0  0  0  0  0  0  0  0  0
    0.5243    0.0863    0.8193 H   0  0  0  0  0  0  0  0  0  0  0  0
    0.9757    0.9137    0.3193 H   0  0  0  0  0  0  0  0  0  0  0  0
    0.5243    0.4137    0.3193 H   0  0  0  0  0  0  0  0  0  0  0  0
    0.9757    0.5863    0.8193 H   0  0  0  0  0  0  0  0  0  0  0  0
    0.4757    0.9137    0.1807 H   0  0  0  0  0  0  0  0  0  0  0  0
    0.0243    0.0863    0.6807 H   0  0  0  0  0  0  0  0  0  0  0  0
    0.3682    0.2543    0.6841 H   0  0  0  0  0  0  0  0  0  0  0  0
    0.1318    0.7457    0.1841 H   0  0  0  0  0  0  0  0  0  0  0  0
    0.6318    0.7543    0.8159 H   0  0  0  0  0  0  0  0  0  0  0  0
    0.8682    0.2457    0.3159 H   0  0  0  0  0  0  0  0  0  0  0  0
    0.6318    0.7457    0.3159 H   0  0  0  0  0  0  0  0  0  0  0  0
    0.8682    0.2543    0.8159 H   0  0  0  0  0  0  0  0  0  0  0  0
    0.3682    0.2457    0.1841 H   0  0  0  0  0  0  0  0  0  0  0  0
    0.1318    0.7543    0.6841 H   0  0  0  0  0  0  0  0  0  0  0  0
    0.2517    0.4063    0.6875 H   0  0  0  0  0  0  0  0  0  0  0  0
    0.2483    0.5937    0.1875 H   0  0  0  0  0  0  0  0  0  0  0  0
    0.7483    0.9063    0.8125 H   0  0  0  0  0  0  0  0  0  0  0  0
    0.7517    0.0937    0.3125 H   0  0  0  0  0  0  0  0  0  0  0  0
    0.7483    0.5937    0.3125 H   0  0  0  0  0  0  0  0  0  0  0  0
    0.7517    0.4063    0.8125 H   0  0  0  0  0  0  0  0  0  0  0  0
    0.2517    0.0937    0.1875 H   0  0  0  0  0  0  0  0  0  0  0  0
    0.2483    0.9063    0.6875 H   0  0  0  0  0  0  0  0  0  0  0  0
    0.3616    0.2881    0.7654 H   0  0  0  0  0  0  0  0  0  0  0  0
    0.1384    0.7119    0.2654 H   0  0  0  0  0  0  0  0  0  0  0  0
    0.6384    0.7881    0.7346 H   0  0  0  0  0  0  0  0  0  0  0  0
    0.8616    0.2119    0.2346 H   0  0  0  0  0  0  0  0  0  0  0  0
    0.6384    0.7119    0.2346 H   0  0  0  0  0  0  0  0  0  0  0  0
    0.8616    0.2881    0.7346 H   0  0  0  0  0  0  0  0  0  0  0  0
    0.3616    0.2119    0.2654 H   0  0  0  0  0  0  0  0  0  0  0  0
    0.1384    0.7881    0.7654 H   0  0  0  0  0  0  0  0  0  0  0  0
    0.3443    0.4783    0.7614 H   0  0  0  0  0  0  0  0  0  0  0  0
    0.1557    0.5217    0.2614 H   0  0  0  0  0  0  0  0  0  0  0  0
    0.6557    0.9783    0.7386 H   0  0  0  0  0  0  0  0  0  0  0  0
    0.8443    0.0217    0.2386 H   0  0  0  0  0  0  0  0  0  0  0  0
    0.6557    0.5217    0.2386 H   0  0  0  0  0  0  0  0  0  0  0  0
    0.8443    0.4783    0.7386 H   0  0  0  0  0  0  0  0  0  0  0  0
    0.3443    0.0217    0.2614 H   0  0  0  0  0  0  0  0  0  0  0  0
    0.1557    0.9783    0.7614 H   0  0  0  0  0  0  0  0  0  0  0  0
    0.5118    0.3957    0.7528 H   0  0  0  0  0  0  0  0  0  0  0  0
    0.9882    0.6043    0.2528 H   0  0  0  0  0  0  0  0  0  0  0  0
    0.4882    0.8957    0.7472 H   0  0  0  0  0  0  0  0  0  0  0  0
    0.0118    0.1043    0.2472 H   0  0  0  0  0  0  0  0  0  0  0  0
    0.4882    0.6043    0.2472 H   0  0  0  0  0  0  0  0  0  0  0  0
    0.0118    0.3957    0.7472 H   0  0  0  0  0  0  0  0  0  0  0  0
    0.5118    0.1043    0.2528 H   0  0  0  0  0  0  0  0  0  0  0  0
    0.9882    0.8957    0.7528 H   0  0  0  0  0  0  0  0  0  0  0  0
    0.4640    0.4660    0.6148 C   0  0  0  0  0  0  0  0  0  0  0  0
    0.0360    0.5340    0.1148 C   0  0  0  0  0  1  0  0  0  0  0  0
    0.5360    0.9660    0.8852 C   0  0  0  0  0  1  0  0  0  0  0  0
    0.9640    0.0340    0.3852 C   0  0  0  0  0  1  0  0  0  0  0  0
    0.5360    0.5340    0.3852 C   0  0  0  0  0  0  0  0  0  0  0  0
    0.9640    0.4660    0.8852 C   0  0  0  0  0  1  0  0  0  0  0  0
    0.4640    0.0340    0.1148 C   0  0  0  0  0  1  0  0  0  0  0  0
    0.0360    0.9660    0.6148 C   0  0  0  0  0  1  0  0  0  0  0  0
    0.4860    0.4741    0.6698 C   0  0  0  0  0 15  0  0  0  0  0  0
    0.0140    0.5259    0.1698 C   0  0  0  0  0  1  0  0  0  0  0  0
    0.5140    0.9741    0.8302 C   0  0  0  0  0  1  0  0  0  0  0  0
    0.9860    0.0259    0.3302 C   0  0  0  0  0 15  0  0  0  0  0  0
    0.5140    0.5259    0.3302 C   0  0  0  0  0 15  0  0  0  0  0  0
    0.9860    0.4741    0.8302 C   0  0  0  0  0  1  0  0  0  0  0  0
    0.4860    0.0259    0.1698 C   0  0  0  0  0  1  0  0  0  0  0  0
    0.0140    0.9741    0.6698 C   0  0  0  0  0 15  0  0  0  0  0  0
    0.3590    0.3670    0.6945 C   0  0  0  0  0  0  0  0  0  0  0  0
    0.1410    0.6330    0.1945 C   0  0  0  0  0  1  0  0  0  0  0  0
    0.6410    0.8670    0.8055 C   0  0  0  0  0  0  0  0  0  0  0  0
    0.8590    0.1330    0.3055 C   0  0  0  0  0  0  0  0  0  0  0  0
    0.6410    0.6330    0.3055 C   0  0  0  0  0  0  0  0  0  0  0  0
    0.8590    0.3670    0.8055 C   0  0  0  0  0  1  0  0  0  0  0  0
    0.3590    0.1330    0.1945 C   0  0  0  0  0  0  0  0  0  0  0  0
    0.1410    0.8670    0.6945 C   0  0  0  0  0  0  0  0  0  0  0  0
    0.3980    0.3840    0.7486 C   0  0  0  0  0  0  0  0  0  0  0  0
    0.1020    0.6160    0.2486 C   0  0  0  0  0  1  0  0  0  0  0  0
    0.6020    0.8840    0.7514 C   0  0  0  0  0 15  0  0  0  0  0  0
    0.8980    0.1160    0.2514 C   0  0  0  0  0 15  0  0  0  0  0  0
    0.6020    0.6160    0.2514 C   0  0  0  0  0  0  0  0  0  0  0  0
    0.8980    0.3840    0.7514 C   0  0  0  0  0  1  0  0  0  0  0  0
    0.3980    0.1160    0.2486 C   0  0  0  0  0 15  0  0  0  0  0  0
    0.1020    0.8840    0.7486 C   0  0  0  0  0 15  0  0  0  0  0  0
    0.3052    0.6939    0.5026 Br  0  0  0  0  0  0  0  0  0  0  0  0
    0.1948    0.3061    0.0026 Br  0  0  0  0  0  0  0  0  0  0  0  0
    0.6948    0.1939    0.9974 Br  0  0  0  0  0  0  0  0  0  0  0  0
    0.8052    0.8061    0.4974 Br  0  0  0  0  0  0  0  0  0  0  0  0
    0.6948    0.3061    0.4974 Br  0  0  0  0  0  0  0  0  0  0  0  0
    0.8052    0.6939    0.9974 Br  0  0  0  0  0  0  0  0  0  0  0  0
    0.3052    0.8061    0.0026 Br  0  0  0  0  0  0  0  0  0  0  0  0
    0.1948    0.1939    0.5026 Br  0  0  0  0  0  0  0  0  0  0  0  0
    0.4679    0.0221    0.3915 Br  0  0  0  0  0  0  0  0  0  0  0  0
    0.0321    0.9779    0.8915 Br  0  0  0  0  0  0  0  0  0  0  0  0
    0.5321    0.5221    0.1085 Br  0  0  0  0  0  0  0  0  0  0  0  0
    0.9679    0.4779    0.6085 Br  0  0  0  0  0  0  0  0  0  0  0  0
    0.5321    0.9779    0.6085 Br  0  0  0  0  0  0  0  0  0  0  0  0
    0.9679    0.0221    0.1085 Br  0  0  0  0  0  0  0  0  0  0  0  0
    0.4679    0.4779    0.8915 Br  0  0  0  0  0  0  0  0  0  0  0  0
    0.0321    0.5221    0.3915 Br  0  0  0  0  0  0  0  0  0  0  0  0
    0.5756    0.5709    0.5893 N   0  0  0  0  0  0  0  0  0  0  0  0
    0.9244    0.4291    0.0893 N   0  0  0  0  0  0  0  0  0  0  0  0
    0.4244    0.0709    0.9107 N   0  0  0  0  0  0  0  0  0  0  0  0
    0.0756    0.9291    0.4107 N   0  0  0  0  0  0  0  0  0  0  0  0
    0.4244    0.4291    0.4107 N   0  0  0  0  0  0  0  0  0  0  0  0
    0.0756    0.5709    0.9107 N   0  0  0  0  0  0  0  0  0  0  0  0
    0.5756    0.9291    0.0893 N   0  0  0  0  0  0  0  0  0  0  0  0
    0.9244    0.0709    0.5893 N   0  0  0  0  0  0  0  0  0  0  0  0
  2100  1  0  0  0  0
  7101  1  0  0  0  0
  8102  1  0  0  0  0
  9115  1  0  0  0  0
 10116  1  0  0  0  0
 15117  1  0  0  0  0
 16118  1  0  0  0  0
 18101  1  0  0  0  0
 19131  1  0  0  0  0
 25147  1  0  0  0  0
 26148  1  0  0  0  0
 51143  1  0  0  0  0
 53129  1  0  0  0  0
 56113  1  0  0  0  0
 66117  1  0  0  0  0
 72115  1  0  0  0  0
 82101  1  0  0  0  0
 85132  1  0  0  0  0
 88 99  1  0  0  0  0
 96110  1  0  0  0  0
 97 86  1  0  0  0  0
 97 22  1  0  0  0  0
 97  3  1  0  0  0  0
 98  4  1  0  0  0  0
103 84  1  0  0  0  0
104  6  1  0  0  0  0
106 92  1  0  0  0  0
111116  1  0  0  0  0
113 70  1  0  0  0  0
113 11  1  0  0  0  0
114 12  1  0  0  0  0
117 52  1  0  0  0  0
119 68  1  0  0  0  0
119 13  1  0  0  0  0
120107  1  0  0  0  0
120 14  1  0  0  0  0
121150  2  0  0  0  0
126134  1  0  0  0  0
130122  1  0  0  0  0
133 49  1  0  0  0  0
135 23  1  0  0  0  0
136 81  1  0  0  0  0
138150  1  0  0  0  0
139 55  1  0  0  0  0
144149  1  0  0  0  0
145140  1  0  0  0  0
146142  1  0  0  0  0
146125  2  0  0  0  0
151 29  1  0  0  0  0
151148  1  0  0  0  0
152 30  1  0  0  0  0
152147  1  0  0  0  0
M  RAD  8   1   2   5   2  17   2  20   2  21   2  24   2  27   2  28   2
M  RAD  8  31   2  32   2  33   2  34   2  35   2  36   2  37   2  38   2
M  RAD  8  39   2  40   2  41   2  42   2  43   2  44   2  45   2  46   2
M  RAD  8  47   2  48   2  50   2  54   2  57   2  58   2  59   2  60   2
M  RAD  8  61   2  62   2  63   2  64   2  65   2  67   2  69   2  71   2
M  RAD  8  73   2  74   2  75   2  76   2  77   2  78   2  79   2  80   2
M  RAD  8  83   2  87   2  89   2  90   2  91   2  93   2  94   2  95   2
M  RAD  8  97   2 101   2 113   2 115   3 116   3 117   2 119   3 120   3
M  RAD  8 121   3 125   3 137   2 141   2 145   3 147   2 148   2 149   3
M  RAD  2 151   2 152   2
M  END
