dataset/hoip2d/hoip2d_16.xyz
 OpenBabel03142210543D

152 48  0  0  0  0  0  0  0  0999 V2000
    0.8679    0.5025    0.8918 H   0  0  0  0  0  0  0  0  0  0  0  0
    0.6321    0.4975    0.3918 H   0  0  0  0  0  0  0  0  0  0  0  0
    0.1321    0.0025    0.6082 H   0  0  0  0  0  0  0  0  0  0  0  0
    0.3679    0.9975    0.1082 H   0  0  0  0  0  0  0  0  0  0  0  0
    0.1321    0.4975    0.1082 H   0  0  0  0  0  0  0  0  0  0  0  0
    0.3679    0.5025    0.6082 H   0  0  0  0  0  0  0  0  0  0  0  0
    0.8679    0.9975    0.3918 H   0  0  0  0  0  0  0  0  0  0  0  0
    0.6321    0.0025    0.8918 H   0  0  0  0  0  0  0  0  0  0  0  0
    0.9871    0.3691    0.8916 H   0  0  0  0  0  0  0  0  0  0  0  0
    0.5129    0.6309    0.3916 H   0  0  0  0  0  0  0  0  0  0  0  0
    0.0129    0.8691    0.6084 H   0  0  0  0  0  0  0  0  0  0  0  0
    0.4871    0.1309    0.1084 H   0  0  0  0  0  0  0  0  0  0  0  0
    0.0129    0.6309    0.1084 H   0  0  0  0  0  0  0  0  0  0  0  0
    0.4871    0.3691    0.6084 H   0  0  0  0  0  0  0  0  0  0  0  0
    0.9871    0.1309    0.3916 H   0  0  0  0  0  0  0  0  0  0  0  0
    0.5129    0.8691    0.8916 H   0  0  0  0  0  0  0  0  0  0  0  0
    0.0827    0.4579    0.8180 H   0  0  0  0  0  0  0  0  0  0  0  0
    0.4173    0.5421    0.3180 H   0  0  0  0  0  0  0  0  0  0  0  0
    0.9173    0.9579    0.6820 H   0  0  0  0  0  0  0  0  0  0  0  0
    0.5827    0.0421    0.1820 H   0  0  0  0  0  0  0  0  0  0  0  0
    0.9173    0.5421    0.1820 H   0  0  0  0  0  0  0  0  0  0  0  0
    0.5827    0.4579    0.6820 H   0  0  0  0  0  0  0  0  0  0  0  0
    0.0827    0.0421    0.3180 H   0  0  0  0  0  0  0  0  0  0  0  0
    0.4173    0.9579    0.8180 H   0  0  0  0  0  0  0  0  0  0  0  0
    0.9659    0.5938    0.8184 H   0  0  0  0  0  0  0  0  0  0  0  0
    0.5341    0.4062    0.3184 H   0  0  0  0  0  0  0  0  0  0  0  0
    0.0341    0.0938    0.6816 H   0  0  0  0  0  0  0  0  0  0  0  0
    0.4659    0.9062    0.1816 H   0  0  0  0  0  0  0  0  0  0  0  0
    0.0341    0.4062    0.1816 H   0  0  0  0  0  0  0  0  0  0  0  0
    0.4659    0.5938    0.6816 H   0  0  0  0  0  0  0  0  0  0  0  0
    0.9659    0.9062    0.3184 H   0  0  0  0  0  0  0  0  0  0  0  0
    0.5341    0.0938    0.8184 H   0  0  0  0  0  0  0  0  0  0  0  0
    0.8749    0.2808    0.8167 H   0  0  0  0  0  0  0  0  0  0  0  0
    0.6251    0.7192    0.3167 H   0  0  0  0  0  0  0  0  0  0  0  0
    0.1251    0.7808    0.6833 H   0  0  0  0  0  0  0  0  0  0  0  0
    0.3749    0.2192    0.1833 H   0  0  0  0  0  0  0  0  0  0  0  0
    0.1251    0.7192    0.1833 H   0  0  0  0  0  0  0  0  0  0  0  0
    0.3749    0.2808    0.6833 H   0  0  0  0  0  0  0  0  0  0  0  0
    0.8749    0.2192    0.3167 H   0  0  0  0  0  0  0  0  0  0  0  0
    0.6251    0.7808    0.8167 H   0  0  0  0  0  0  0  0  0  0  0  0
    0.7655    0.4215    0.8114 H   0  0  0  0  0  0  0  0  0  0  0  0
    0.7345    0.5785    0.3114 H   0  0  0  0  0  0  0  0  0  0  0  0
    0.2345    0.9215    0.6886 H   0  0  0  0  0  0  0  0  0  0  0  0
    0.2655    0.0785    0.1886 H   0  0  0  0  0  0  0  0  0  0  0  0
    0.2345    0.5785    0.1886 H   0  0  0  0  0  0  0  0  0  0  0  0
    0.2655    0.4215    0.6886 H   0  0  0  0  0  0  0  0  0  0  0  0
    0.7655    0.0785    0.3114 H   0  0  0  0  0  0  0  0  0  0  0  0
    0.7345    0.9215    0.8114 H   0  0  0  0  0  0  0  0  0  0  0  0
    0.8104    0.3143    0.7368 H   0  0  0  0  0  0  0  0  0  0  0  0
    0.6896    0.6857    0.2368 H   0  0  0  0  0  0  0  0  0  0  0  0
    0.1896    0.8143    0.7632 H   0  0  0  0  0  0  0  0  0  0  0  0
    0.3104    0.1857    0.2632 H   0  0  0  0  0  0  0  0  0  0  0  0
    0.1896    0.6857    0.2632 H   0  0  0  0  0  0  0  0  0  0  0  0
    0.3104    0.3143    0.7632 H   0  0  0  0  0  0  0  0  0  0  0  0
    0.8104    0.1857    0.2368 H   0  0  0  0  0  0  0  0  0  0  0  0
    0.6896    0.8143    0.7368 H   0  0  0  0  0  0  0  0  0  0  0  0
    0.9839    0.3410    0.7433 H   0  0  0  0  0  0  0  0  0  0  0  0
    0.5161    0.6590    0.2433 H   0  0  0  0  0  0  0  0  0  0  0  0
    0.0161    0.8410    0.7567 H   0  0  0  0  0  0  0  0  0  0  0  0
    0.4839    0.1590    0.2567 H   0  0  0  0  0  0  0  0  0  0  0  0
    0.0161    0.6590    0.2567 H   0  0  0  0  0  0  0  0  0  0  0  0
    0.4839    0.3410    0.7567 H   0  0  0  0  0  0  0  0  0  0  0  0
    0.9839    0.1590    0.2433 H   0  0  0  0  0  0  0  0  0  0  0  0
    0.5161    0.8410    0.7433 H   0  0  0  0  0  0  0  0  0  0  0  0
    0.8751    0.4821    0.7380 H   0  0  0  0  0  0  0  0  0  0  0  0
    0.6249    0.5179    0.2380 H   0  0  0  0  0  0  0  0  0  0  0  0
    0.1249    0.9821    0.7620 H   0  0  0  0  0  0  0  0  0  0  0  0
    0.3751    0.0179    0.2620 H   0  0  0  0  0  0  0  0  0  0  0  0
    0.1249    0.5179    0.2620 H   0  0  0  0  0  0  0  0  0  0  0  0
    0.3751    0.4821    0.7620 H   0  0  0  0  0  0  0  0  0  0  0  0
    0.8751    0.0179    0.2380 H   0  0  0  0  0  0  0  0  0  0  0  0
    0.6249    0.9821    0.7380 H   0  0  0  0  0  0  0  0  0  0  0  0
    0.0594    0.5726    0.9377 H   0  0  0  0  0  0  0  0  0  0  0  0
    0.4406    0.4274    0.4377 H   0  0  0  0  0  0  0  0  0  0  0  0
    0.9406    0.0726    0.5623 H   0  0  0  0  0  0  0  0  0  0  0  0
    0.5594    0.9274    0.0623 H   0  0  0  0  0  0  0  0  0  0  0  0
    0.9406    0.4274    0.0623 H   0  0  0  0  0  0  0  0  0  0  0  0
    0.5594    0.5726    0.5623 H   0  0  0  0  0  0  0  0  0  0  0  0
    0.0594    0.9274    0.4377 H   0  0  0  0  0  0  0  0  0  0  0  0
    0.4406    0.0726    0.9377 H   0  0  0  0  0  0  0  0  0  0  0  0
    0.0657    0.6697    0.8949 H   0  0  0  0  0  0  0  0  0  0  0  0
    0.4343    0.3303    0.3949 H   0  0  0  0  0  0  0  0  0  0  0  0
    0.9343    0.1697    0.6051 H   0  0  0  0  0  0  0  0  0  0  0  0
    0.5657    0.8303    0.1051 H   0  0  0  0  0  0  0  0  0  0  0  0
    0.9343    0.3303    0.1051 H   0  0  0  0  0  0  0  0  0  0  0  0
    0.5657    0.6697    0.6051 H   0  0  0  0  0  0  0  0  0  0  0  0
    0.0657    0.8303    0.3949 H   0  0  0  0  0  0  0  0  0  0  0  0
    0.4343    0.1697    0.8949 H   0  0  0  0  0  0  0  0  0  0  0  0
    0.1692    0.5412    0.8999 H   0  0  0  0  0  0  0  0  0  0  0  0
    0.3308    0.4588    0.3999 H   0  0  0  0  0  0  0  0  0  0  0  0
    0.8308    0.0412    0.6001 H   0  0  0  0  0  0  0  0  0  0  0  0
    0.6692    0.9588    0.1001 H   0  0  0  0  0  0  0  0  0  0  0  0
    0.8308    0.4588    0.1001 H   0  0  0  0  0  0  0  0  0  0  0  0
    0.6692    0.5412    0.6001 H   0  0  0  0  0  0  0  0  0  0  0  0
    0.1692    0.9588    0.3999 H   0  0  0  0  0  0  0  0  0  0  0  0
    0.3308    0.0412    0.8999 H   0  0  0  0  0  0  0  0  0  0  0  0
    0.9692    0.4748    0.8819 C   0  0  0  0  0  0  0  0  0  0  0  0
    0.5308    0.5252    0.3819 C   0  0  0  0  0  0  0  0  0  0  0  0
    0.0308    0.9748    0.6181 C   0  0  0  0  0  1  0  0  0  0  0  0
    0.4692    0.0252    0.1181 C   0  0  0  0  0  1  0  0  0  0  0  0
    0.0308    0.5252    0.1181 C   0  0  0  0  0  0  0  0  0  0  0  0
    0.4692    0.4748    0.6181 C   0  0  0  0  0  0  0  0  0  0  0  0
    0.9692    0.0252    0.3819 C   0  0  0  0  0  1  0  0  0  0  0  0
    0.5308    0.9748    0.8819 C   0  0  0  0  0  1  0  0  0  0  0  0
    0.9822    0.4879    0.8282 C   0  0  0  0  0 15  0  0  0  0  0  0
    0.5178    0.5121    0.3282 C   0  0  0  0  0  0  0  0  0  0  0  0
    0.0178    0.9879    0.6718 C   0  0  0  0  0 15  0  0  0  0  0  0
    0.4822    0.0121    0.1718 C   0  0  0  0  0 15  0  0  0  0  0  0
    0.0178    0.5121    0.1718 C   0  0  0  0  0 15  0  0  0  0  0  0
    0.4822    0.4879    0.6718 C   0  0  0  0  0  0  0  0  0  0  0  0
    0.9822    0.0121    0.3282 C   0  0  0  0  0 15  0  0  0  0  0  0
    0.5178    0.9879    0.8282 C   0  0  0  0  0 15  0  0  0  0  0  0
    0.8660    0.3840    0.8039 C   0  0  0  0  0  1  0  0  0  0  0  0
    0.6340    0.6160    0.3039 C   0  0  0  0  0  1  0  0  0  0  0  0
    0.1340    0.8840    0.6961 C   0  0  0  0  0  1  0  0  0  0  0  0
    0.3660    0.1160    0.1961 C   0  0  0  0  0  1  0  0  0  0  0  0
    0.1340    0.6160    0.1961 C   0  0  0  0  0  1  0  0  0  0  0  0
    0.3660    0.3840    0.6961 C   0  0  0  0  0  1  0  0  0  0  0  0
    0.8660    0.1160    0.3039 C   0  0  0  0  0  1  0  0  0  0  0  0
    0.6340    0.8840    0.8039 C   0  0  0  0  0  1  0  0  0  0  0  0
    0.8860    0.3800    0.7509 C   0  0  0  0  0  0  0  0  0  0  0  0
    0.6140    0.6200    0.2509 C   0  0  0  0  0 15  0  0  0  0  0  0
    0.1140    0.8800    0.7491 C   0  0  0  0  0  1  0  0  0  0  0  0
    0.3860    0.1200    0.2491 C   0  0  0  0  0  0  0  0  0  0  0  0
    0.1140    0.6200    0.2491 C   0  0  0  0  0  0  0  0  0  0  0  0
    0.3860    0.3800    0.7491 C   0  0  0  0  0 15  0  0  0  0  0  0
    0.8860    0.1200    0.2509 C   0  0  0  0  0  1  0  0  0  0  0  0
    0.6140    0.8800    0.7509 C   0  0  0  0  0  0  0  0  0  0  0  0
    0.0335    0.9856    0.8845 I   0  0  0  0  0  0  0  0  0  0  0  0
    0.4665    0.0144    0.3845 I   0  0  0  0  0  0  0  0  0  0  0  0
    0.9665    0.4856    0.6155 I   0  0  0  0  0  0  0  0  0  0  0  0
    0.5335    0.5144    0.1155 I   0  0  0  0  0  0  0  0  0  0  0  0
    0.9665    0.0144    0.1155 I   0  0  0  0  0  0  0  0  0  0  0  0
    0.5335    0.9856    0.6155 I   0  0  0  0  0  0  0  0  0  0  0  0
    0.0335    0.5144    0.3845 I   0  0  0  0  0  0  0  0  0  0  0  0
    0.4665    0.4856    0.8845 I   0  0  0  0  0  0  0  0  0  0  0  0
    0.6965    0.1946    0.9957 I   0  0  0  0  0  0  0  0  0  0  0  0
    0.8035    0.8054    0.4957 I   0  0  0  0  0  0  0  0  0  0  0  0
    0.3035    0.6946    0.5043 I   0  0  0  0  0  0  0  0  0  0  0  0
    0.1965    0.3054    0.0043 I   0  0  0  0  0  0  0  0  0  0  0  0
    0.3035    0.8054    0.0043 I   0  0  0  0  0  0  0  0  0  0  0  0
    0.1965    0.1946    0.5043 I   0  0  0  0  0  0  0  0  0  0  0  0
    0.6965    0.3054    0.4957 I   0  0  0  0  0  0  0  0  0  0  0  0
    0.8035    0.6946    0.9957 I   0  0  0  0  0  0  0  0  0  0  0  0
    0.0761    0.5741    0.9059 N   0  0  0  0  0  0  0  0  0  0  0  0
    0.4239    0.4259    0.4059 N   0  0  0  0  0  0  0  0  0  0  0  0
    0.9239    0.0741    0.5941 N   0  0  0  0  0  0  0  0  0  0  0  0
    0.5761    0.9259    0.0941 N   0  0  0  0  0 15  0  0  0  0  0  0
    0.9239    0.4259    0.0941 N   0  0  0  0  0  0  0  0  0  0  0  0
    0.5761    0.5741    0.5941 N   0  0  0  0  0  0  0  0  0  0  0  0
    0.0761    0.9259    0.4059 N   0  0  0  0  0  0  0  0  0  0  0  0
    0.4239    0.0741    0.9059 N   0  0  0  0  0 15  0  0  0  0  0  0
  4151  1  0  0  0  0
  7134  1  0  0  0  0
 12146  1  0  0  0  0
 13151  1  0  0  0  0
 50146  1  0  0  0  0
 58125  1  0  0  0  0
 64123  1  0  0  0  0
 66102  1  0  0  0  0
 67104  1  0  0  0  0
 82139  1  0  0  0  0
 83 97  1  0  0  0  0
 84 98  1  0  0  0  0
 85103  1  0  0  0  0
 91113  1  0  0  0  0
 92114  1  0  0  0  0
 93119  1  0  0  0  0
 94120  1  0  0  0  0
 97137  1  0  0  0  0
 98138  1  0  0  0  0
 98 70  1  0  0  0  0
 99 81  1  0  0  0  0
100 71  1  0  0  0  0
101 87  1  0  0  0  0
102 88  1  0  0  0  0
110128  3  0  0  0  0
115 89  1  0  0  0  0
116 90  1  0  0  0  0
117 95  1  0  0  0  0
118 96  1  0  0  0  0
121 62  1  0  0  0  0
121144  1  0  0  0  0
124106  3  0  0  0  0
127 60  1  0  0  0  0
129145  1  0  0  0  0
130  3  1  0  0  0  0
135146  1  0  0  0  0
136145  1  0  0  0  0
140125  1  0  0  0  0
141101  1  0  0  0  0
142102  1  0  0  0  0
143 86  1  0  0  0  0
147  9  1  0  0  0  0
147  8  1  0  0  0  0
149133  1  0  0  0  0
149132  1  0  0  0  0
150131  1  0  0  0  0
150 54  1  0  0  0  0
150 16  1  0  0  0  0
M  RAD  8   1   2   2   2   5   2   6   2  10   2  11   2  14   2  15   2
M  RAD  8  17   2  18   2  19   2  20   2  21   2  22   2  23   2  24   2
M  RAD  8  25   2  26   2  27   2  28   2  29   2  30   2  31   2  32   2
M  RAD  8  33   2  34   2  35   2  36   2  37   2  38   2  39   2  40   2
M  RAD  8  41   2  42   2  43   2  44   2  45   2  46   2  47   2  48   2
M  RAD  8  49   2  51   2  52   2  53   2  55   2  56   2  57   2  59   2
M  RAD  8  61   2  63   2  65   2  68   2  69   2  72   2  73   2  74   2
M  RAD  8  75   2  76   2  77   2  78   2  79   2  80   2  97   3  98   2
M  RAD  8 101   3 102   2 106   2 110   2 121   3 124   2 125   3 128   2
M  RAD  4 145   2 147   2 149   2 151   2
M  END
