152

H	0.55678	0.674578	0.597252
H	0.94322	0.325422	0.09725200000000012
H	0.44321999999999995	0.1745779999999999	0.902748
H	0.05678000000000005	0.825422	0.402748
H	0.44321999999999995	0.325422	0.402748
H	0.05678000000000005	0.674578	0.9027479999999999
H	0.55678	0.8254220000000001	0.097252
H	0.94322	0.174578	0.597252
H	0.563034	0.558244	0.557592
H	0.936966	0.44175600000000004	0.05759200000000009
H	0.43696599999999997	0.05824399999999996	0.942408
H	0.06303400000000003	0.941756	0.442408
H	0.43696599999999997	0.44175600000000004	0.442408
H	0.06303400000000003	0.558244	0.9424079999999999
H	0.563034	0.941756	0.05759199999999998
H	0.936966	0.05824399999999996	0.557592
H	0.675725	0.544553	0.597534
H	0.824275	0.45544700000000005	0.09753400000000001
H	0.324275	0.044553000000000065	0.902466
H	0.1757249999999999	0.955447	0.402466
H	0.324275	0.45544700000000005	0.402466
H	0.17572500000000002	0.544553	0.902466
H	0.675725	0.9554469999999999	0.09753400000000001
H	0.8242750000000001	0.044552999999999954	0.597534
H	0.478721	0.353781	0.604091
H	0.021278999999999992	0.646219	0.10409099999999993
H	0.521279	0.853781	0.895909
H	0.978721	0.146219	0.39590899999999996
H	0.521279	0.646219	0.39590899999999996
H	0.978721	0.353781	0.8959090000000001
H	0.478721	0.146219	0.10409100000000004
H	0.021279000000000048	0.853781	0.604091
H	0.354597	0.497727	0.60679
H	0.145403	0.502273	0.10679000000000016
H	0.645403	0.997727	0.89321
H	0.854597	0.002273000000000025	0.39320999999999995
H	0.645403	0.502273	0.39320999999999995
H	0.854597	0.497727	0.8932099999999998
H	0.354597	0.0022729999999999695	0.10679000000000005
H	0.14540299999999995	0.997727	0.60679
H	0.59305	0.435984	0.678308
H	0.90695	0.5640160000000001	0.1783079999999999
H	0.40695000000000003	0.9359839999999999	0.821692
H	0.09304999999999986	0.06401600000000002	0.321692
H	0.40695000000000003	0.5640160000000001	0.321692
H	0.09304999999999997	0.435984	0.8216920000000001
H	0.59305	0.06401600000000007	0.17830800000000002
H	0.9069500000000001	0.9359839999999999	0.678308
H	0.475709	0.586309	0.680666
H	0.024291000000000007	0.41369100000000003	0.180666
H	0.5242910000000001	0.08630899999999997	0.819334
H	0.9757089999999999	0.913691	0.319334
H	0.5242910000000001	0.41369100000000003	0.319334
H	0.9757089999999999	0.586309	0.819334
H	0.475709	0.913691	0.180666
H	0.024291000000000063	0.08630899999999997	0.680666
H	0.368173	0.254305	0.684084
H	0.13182700000000003	0.745695	0.18408399999999991
H	0.631827	0.754305	0.815916
H	0.868173	0.245695	0.315916
H	0.631827	0.745695	0.315916
H	0.868173	0.254305	0.8159160000000001
H	0.368173	0.245695	0.18408400000000003
H	0.13182700000000003	0.754305	0.684084
H	0.251741	0.406258	0.687483
H	0.248259	0.593742	0.18748299999999984
H	0.748259	0.906258	0.812517
H	0.751741	0.09374199999999999	0.31251700000000004
H	0.748259	0.593742	0.31251700000000004
H	0.751741	0.406258	0.8125170000000002
H	0.251741	0.09374199999999999	0.18748299999999996
H	0.248259	0.906258	0.687483
H	0.361645	0.288097	0.765424
H	0.138355	0.711903	0.2654239999999999
H	0.638355	0.788097	0.734576
H	0.861645	0.211903	0.234576
H	0.638355	0.711903	0.234576
H	0.861645	0.288097	0.7345760000000001
H	0.361645	0.21190299999999995	0.265424
H	0.138355	0.788097	0.765424
H	0.344262	0.478342	0.761385
H	0.155738	0.521658	0.261385
H	0.6557379999999999	0.978342	0.738615
H	0.8442620000000001	0.02165800000000001	0.23861500000000002
H	0.6557379999999999	0.521658	0.23861500000000002
H	0.8442620000000001	0.478342	0.738615
H	0.344262	0.021657999999999955	0.261385
H	0.15573799999999993	0.978342	0.761385
H	0.511775	0.395655	0.752806
H	0.988225	0.604345	0.2528060000000001
H	0.488225	0.895655	0.747194
H	0.011775000000000091	0.10434500000000002	0.24719400000000002
H	0.488225	0.604345	0.24719400000000002
H	0.01177499999999998	0.395655	0.7471939999999999
H	0.511775	0.10434500000000002	0.252806
H	0.9882249999999999	0.895655	0.752806
C	0.464	0.466	0.6148
C	0.035999999999999976	0.534	0.11480000000000001
C	0.536	0.966	0.8852
C	0.964	0.033999999999999975	0.3852
C	0.536	0.534	0.3852
C	0.964	0.466	0.8852
C	0.464	0.03400000000000003	0.11480000000000001
C	0.03600000000000003	0.966	0.6148
C	0.486	0.4741	0.6698
C	0.014000000000000012	0.5259	0.16979999999999995
C	0.514	0.9741	0.8302
C	0.986	0.02589999999999998	0.33020000000000005
C	0.514	0.5259	0.33020000000000005
C	0.986	0.4741	0.8302
C	0.486	0.025900000000000034	0.16979999999999995
C	0.014000000000000012	0.9741	0.6698
C	0.359	0.367	0.6945
C	0.14100000000000001	0.633	0.19450000000000012
C	0.641	0.867	0.8055
C	0.859	0.133	0.3055
C	0.641	0.633	0.3055
C	0.859	0.367	0.8054999999999999
C	0.359	0.133	0.1945
C	0.14100000000000001	0.867	0.6945
C	0.398	0.384	0.7486
C	0.10199999999999998	0.616	0.24860000000000015
C	0.602	0.884	0.7514
C	0.898	0.11599999999999999	0.25139999999999996
C	0.602	0.616	0.25139999999999996
C	0.898	0.384	0.7513999999999998
C	0.398	0.11599999999999999	0.24860000000000004
C	0.10199999999999998	0.884	0.7486
Br	0.3052	0.6939	0.50262
Br	0.19479999999999997	0.30610000000000004	0.0026199999999998447
Br	0.6948	0.19389999999999996	0.99738
Br	0.8052	0.8061	0.49738000000000004
Br	0.6948	0.30610000000000004	0.49738000000000004
Br	0.8052	0.6939	0.9973800000000002
Br	0.3052	0.8061	0.0026199999999999557
Br	0.19479999999999997	0.19389999999999996	0.50262
Br	0.4679	0.02210000000000001	0.39154
Br	0.03210000000000002	0.9779	0.89154
Br	0.5321	0.5221	0.10846
Br	0.9679	0.4779	0.60846
Br	0.5321	0.9779	0.60846
Br	0.9679	0.02210000000000001	0.10846
Br	0.4679	0.4779	0.89154
Br	0.03210000000000002	0.5221	0.39154
N	0.5756	0.5709	0.5893
N	0.9244	0.42910000000000004	0.08930000000000016
N	0.4244	0.07089999999999996	0.9107
N	0.07560000000000011	0.9291	0.41069999999999995
N	0.4244	0.42910000000000004	0.41069999999999995
N	0.0756	0.5709	0.9106999999999998
N	0.5756	0.9291	0.08930000000000005
N	0.9243999999999999	0.07089999999999996	0.5893
