56

C	0.562	0.75	0.123
C	0.43799999999999994	0.25	0.877
C	0.062000000000000055	0.25	0.377
C	0.938	0.75	0.623
C	0.514	0.75	0.082
C	0.486	0.25	0.918
C	0.014000000000000012	0.25	0.418
C	0.986	0.75	0.582
C	0.64	0.75	0.045
C	0.36	0.25	0.955
C	0.14000000000000012	0.25	0.455
C	0.86	0.75	0.545
C	0.596	0.75	0.007
C	0.404	0.25	0.993
C	0.09600000000000009	0.25	0.493
C	0.904	0.75	0.507
C	0.925	0.25	0.126
C	0.07499999999999996	0.75	0.874
C	0.42500000000000004	0.75	0.374
C	0.575	0.25	0.626
C	0.982	0.25	0.082
C	0.018000000000000016	0.75	0.918
C	0.482	0.75	0.418
C	0.518	0.25	0.582
C	0.857	0.25	0.047
C	0.14300000000000002	0.75	0.953
C	0.357	0.75	0.453
C	0.643	0.25	0.547
C	0.904	0.25	0.006
C	0.09599999999999997	0.75	0.994
C	0.4039999999999999	0.75	0.494
C	0.596	0.25	0.506
I	0.4458	0.25	0.142
I	0.5542	0.75	0.858
I	0.9458	0.75	0.358
I	0.054200000000000026	0.25	0.642
I	0.7332	0.4969	0.238
I	0.26680000000000004	0.5031	0.762
I	0.23320000000000007	0.5031	0.262
I	0.7668	0.4969	0.738
I	0.26680000000000004	0.9969	0.762
I	0.7332	0.0030999999999999917	0.238
I	0.7668	0.0030999999999999917	0.738
I	0.23320000000000007	0.9969	0.262
I	0.5462	0.25	0.3564
I	0.4538	0.75	0.6436
I	0.04620000000000002	0.75	0.1436
I	0.9538	0.25	0.8564
N	0.448	0.75	0.164
N	0.552	0.25	0.836
N	0.948	0.25	0.33599999999999997
N	0.05199999999999999	0.75	0.664
N	0.043	0.25	0.165
N	0.957	0.75	0.835
N	0.543	0.75	0.33499999999999996
N	0.457	0.25	0.665
