120

H	0.83712	0.48637	0.1103
H	0.66288	0.51363	0.6103
H	0.3371200000000001	0.013629999999999975	0.8897
H	0.16288000000000002	0.98637	0.3897
H	0.16288000000000002	0.51363	0.8897
H	0.3371200000000001	0.48637	0.3897
H	0.66288	0.98637	0.1103
H	0.83712	0.013629999999999975	0.6103
H	0.09733	0.55767	0.1825
H	0.40267	0.44233	0.6825
H	0.59733	0.94233	0.8175
H	0.90267	0.05766999999999989	0.3175
H	0.90267	0.44233	0.8175
H	0.59733	0.55767	0.3175
H	0.40267	0.05766999999999989	0.1825
H	0.09733	0.94233	0.6825
H	0.76731	0.6715	0.17618
H	0.73269	0.3285	0.67618
H	0.26731000000000016	0.8285	0.82382
H	0.23268999999999995	0.17149999999999999	0.32382
H	0.23268999999999995	0.3285	0.82382
H	0.26731000000000016	0.6715	0.32382
H	0.73269	0.17149999999999999	0.17618
H	0.76731	0.8285	0.67618
H	0.81542	0.63822	0.26757
H	0.68458	0.36178	0.76757
H	0.31542000000000003	0.86178	0.73243
H	0.18457999999999997	0.13822	0.23243000000000003
H	0.18457999999999997	0.36178	0.73243
H	0.31542000000000003	0.63822	0.23243000000000003
H	0.68458	0.13822	0.26757
H	0.81542	0.86178	0.76757
H	0.98358	0.51428	0.25076
H	0.51642	0.48572000000000004	0.75076
H	0.4835799999999999	0.98572	0.74924
H	0.01641999999999999	0.014279999999999848	0.24924000000000002
H	0.01641999999999999	0.48572000000000004	0.74924
H	0.4835799999999999	0.51428	0.24924000000000002
H	0.51642	0.014279999999999848	0.25076
H	0.98358	0.98572	0.75076
H	0.18115	0.47588	0.09353
H	0.31884999999999997	0.5241199999999999	0.59353
H	0.68115	0.024119999999999975	0.90647
H	0.81885	0.9758800000000001	0.40647
H	0.81885	0.5241199999999999	0.90647
H	0.68115	0.47588	0.40647
H	0.31884999999999997	0.9758800000000001	0.09353
H	0.18115	0.024119999999999975	0.59353
H	0.07321	0.32	0.09623
H	0.42679	0.6799999999999999	0.59623
H	0.57321	0.18	0.90377
H	0.92679	0.8200000000000001	0.40377
H	0.92679	0.6799999999999999	0.90377
H	0.57321	0.32	0.40377
H	0.42679	0.8200000000000001	0.09623
H	0.07321	0.18	0.59623
H	0.05438	0.44313	0.05082
H	0.44562	0.55687	0.55082
H	0.55438	0.056869999999999976	0.94918
H	0.94562	0.94313	0.44918
H	0.94562	0.55687	0.94918
H	0.55438	0.44313	0.44918
H	0.44562	0.94313	0.05082
H	0.05438	0.056869999999999976	0.55082
C	0.95	0.531	0.118
C	0.55	0.469	0.618
C	0.44999999999999996	0.969	0.882
C	0.050000000000000044	0.03100000000000014	0.382
C	0.050000000000000044	0.469	0.882
C	0.44999999999999996	0.531	0.382
C	0.55	0.03100000000000014	0.118
C	0.95	0.969	0.618
C	0.987	0.51	0.173
C	0.513	0.49	0.673
C	0.4870000000000001	0.99	0.827
C	0.013000000000000012	0.010000000000000009	0.327
C	0.013000000000000012	0.49	0.827
C	0.4870000000000001	0.51	0.327
C	0.513	0.010000000000000009	0.173
C	0.987	0.99	0.673
C	0.857	0.606	0.194
C	0.643	0.394	0.694
C	0.357	0.894	0.806
C	0.14300000000000002	0.10599999999999987	0.306
C	0.14300000000000002	0.394	0.806
C	0.357	0.606	0.306
C	0.643	0.10599999999999987	0.194
C	0.857	0.894	0.694
C	0.887	0.585	0.24
C	0.613	0.41500000000000004	0.74
C	0.387	0.915	0.76
C	0.11299999999999999	0.08499999999999996	0.26
C	0.11299999999999999	0.41500000000000004	0.76
C	0.387	0.585	0.26
C	0.613	0.08499999999999996	0.24
C	0.887	0.915	0.74
I	0.0376	0.0133	0.114
I	0.4624	0.9867	0.614
I	0.5376	0.4867	0.886
I	0.9624	0.5133	0.386
I	0.9624	0.9867	0.886
I	0.5376	0.0133	0.386
I	0.4624	0.5133	0.114
I	0.0376	0.4867	0.614
I	0.2081	0.7063	0.9938
I	0.2919	0.29369999999999996	0.4938
I	0.7081	0.7937	0.006199999999999983
I	0.7919	0.20630000000000015	0.5062
I	0.7919	0.29369999999999996	0.006199999999999983
I	0.7081	0.7063	0.5062
I	0.2919	0.20630000000000015	0.9938
I	0.2081	0.7937	0.4938
N	0.077	0.433	0.0866
N	0.423	0.567	0.5866
N	0.577	0.067	0.9134
N	0.923	0.933	0.4134
N	0.923	0.567	0.9134
N	0.577	0.433	0.4134
N	0.423	0.933	0.0866
N	0.077	0.067	0.5866
