152

H	0.8679	0.5025	0.8918
H	0.6321	0.49750000000000005	0.3917999999999999
H	0.1321	0.0024999999999999467	0.6082
H	0.3679000000000001	0.9975	0.10819999999999996
H	0.1321	0.49750000000000005	0.10819999999999996
H	0.3679	0.5025	0.6082000000000001
H	0.8679	0.9975	0.39180000000000004
H	0.6320999999999999	0.0024999999999999467	0.8918
H	0.9871	0.3691	0.8916
H	0.5129	0.6309	0.39159999999999995
H	0.012900000000000023	0.8691	0.6084
H	0.48709999999999987	0.13090000000000002	0.10840000000000005
H	0.012900000000000023	0.6309	0.10840000000000005
H	0.4871	0.3691	0.6084
H	0.9871	0.13090000000000002	0.39159999999999995
H	0.5129000000000001	0.8691	0.8916
H	0.0827	0.4579	0.818
H	0.4173	0.5421	0.31800000000000006
H	0.9173	0.9579	0.682
H	0.5827	0.042100000000000026	0.18200000000000005
H	0.9173	0.5421	0.18200000000000005
H	0.5827	0.4579	0.6819999999999999
H	0.0827	0.042100000000000026	0.31799999999999995
H	0.4173	0.9579	0.818
H	0.9659	0.5938	0.8184
H	0.5341	0.4062	0.3184
H	0.03410000000000002	0.09379999999999988	0.6816
H	0.4659	0.9062	0.18159999999999998
H	0.03410000000000002	0.4062	0.18159999999999998
H	0.4659	0.5938	0.6816
H	0.9659	0.9062000000000001	0.3184
H	0.5341	0.0938	0.8184
H	0.8749	0.2808	0.8167
H	0.6251	0.7192000000000001	0.3167
H	0.1251	0.7807999999999999	0.6833
H	0.3749	0.2192	0.18330000000000002
H	0.1251	0.7192000000000001	0.18330000000000002
H	0.3749	0.2808	0.6833
H	0.8749	0.21920000000000006	0.3167
H	0.6251	0.7807999999999999	0.8167
H	0.7655	0.4215	0.8114
H	0.7345	0.5785	0.3113999999999999
H	0.23450000000000004	0.9215	0.6886
H	0.26549999999999985	0.07850000000000001	0.1886
H	0.23450000000000004	0.5785	0.1886
H	0.26549999999999996	0.4215	0.6886000000000001
H	0.7655	0.07850000000000001	0.3114
H	0.7345000000000002	0.9215	0.8114
H	0.8104	0.3143	0.7368
H	0.6896	0.6857	0.23680000000000012
H	0.1896	0.8143	0.7632
H	0.3104	0.18569999999999998	0.2632
H	0.1896	0.6857	0.2632
H	0.3104	0.3143	0.7631999999999999
H	0.8104	0.18569999999999998	0.2368
H	0.6896	0.8143	0.7368
H	0.9839	0.341	0.7433
H	0.5161	0.659	0.24330000000000007
H	0.016100000000000003	0.841	0.7567
H	0.4839	0.15899999999999997	0.25670000000000004
H	0.016100000000000003	0.659	0.25670000000000004
H	0.4839	0.341	0.7566999999999999
H	0.9839	0.15900000000000003	0.24329999999999996
H	0.5161	0.841	0.7433
H	0.8751	0.4821	0.738
H	0.6249	0.5179	0.238
H	0.12490000000000001	0.9821	0.762
H	0.3751	0.017900000000000027	0.262
H	0.12490000000000001	0.5179	0.262
H	0.3751	0.4821	0.762
H	0.8751	0.017900000000000027	0.238
H	0.6249	0.9821	0.738
H	0.0593999999999999	0.5726	0.9377
H	0.4406000000000001	0.4274	0.4377
H	0.9406000000000001	0.0726	0.5623
H	0.5593999999999999	0.9274	0.06230000000000002
H	0.9406000000000001	0.4274	0.06230000000000002
H	0.5593999999999999	0.5726	0.5623
H	0.0593999999999999	0.9274	0.4377
H	0.4406000000000001	0.0726	0.9377
H	0.06570000000000009	0.6697	0.8949
H	0.4342999999999999	0.33030000000000004	0.39490000000000003
H	0.9342999999999999	0.16969999999999996	0.6051
H	0.5657000000000001	0.8303	0.10509999999999997
H	0.9342999999999999	0.33030000000000004	0.10509999999999997
H	0.5657000000000001	0.6697	0.6051
H	0.06570000000000009	0.8303	0.39490000000000003
H	0.4342999999999999	0.16969999999999996	0.8949
H	0.16920000000000002	0.5412	0.8999
H	0.3308	0.4588	0.39990000000000014
H	0.8308	0.0411999999999999	0.6001
H	0.6692	0.9588	0.10009999999999997
H	0.8308	0.4588	0.10009999999999997
H	0.6692	0.5412	0.6000999999999999
H	0.16920000000000002	0.9588000000000001	0.39990000000000003
H	0.3308	0.041200000000000014	0.8999
C	0.9692	0.4748	0.8819
C	0.5308	0.5252	0.3818999999999999
C	0.03080000000000005	0.9748	0.6181
C	0.46919999999999984	0.0252	0.11809999999999998
C	0.03080000000000005	0.5252	0.11809999999999998
C	0.46919999999999995	0.4748	0.6181000000000001
C	0.9692	0.0252	0.3819
C	0.5308000000000002	0.9748	0.8819
C	0.9822	0.4879	0.8282
C	0.5178	0.5121	0.32820000000000005
C	0.017800000000000038	0.9879	0.6718
C	0.48219999999999996	0.0121	0.17179999999999995
C	0.017800000000000038	0.5121	0.17179999999999995
C	0.48219999999999996	0.4879	0.6718
C	0.9822	0.0121	0.32820000000000005
C	0.5178	0.9879	0.8282
C	0.866	0.384	0.8039
C	0.634	0.616	0.30390000000000006
C	0.134	0.884	0.6961
C	0.3660000000000001	0.11599999999999999	0.19610000000000005
C	0.134	0.616	0.19610000000000005
C	0.366	0.384	0.6960999999999999
C	0.866	0.11599999999999999	0.30389999999999995
C	0.6339999999999999	0.884	0.8039
C	0.886	0.38	0.7509
C	0.614	0.62	0.2509000000000001
C	0.11399999999999999	0.88	0.7491
C	0.3860000000000001	0.12	0.2491
C	0.11399999999999999	0.62	0.2491
C	0.386	0.38	0.7490999999999999
C	0.886	0.12	0.2509
C	0.6139999999999999	0.88	0.7509
I	0.03349000000000002	0.98557	0.88455
I	0.46651	0.014430000000000054	0.38454999999999995
I	0.96651	0.48557000000000006	0.61545
I	0.53349	0.51443	0.11545000000000005
I	0.96651	0.014430000000000054	0.11545000000000005
I	0.53349	0.98557	0.61545
I	0.03349000000000002	0.5144299999999999	0.38454999999999995
I	0.46651	0.48556999999999995	0.88455
I	0.69648	0.19465	0.99571
I	0.80352	0.80535	0.4957099999999999
I	0.30352	0.69465	0.50429
I	0.19648	0.30535	0.004290000000000016
I	0.30352	0.80535	0.004290000000000016
I	0.19648	0.19465	0.5042900000000001
I	0.69648	0.30535	0.49571
I	0.80352	0.69465	0.99571
N	0.07610000000000006	0.5741	0.9059
N	0.42389999999999994	0.42589999999999995	0.4058999999999999
N	0.9238999999999999	0.07410000000000005	0.5941
N	0.5761000000000001	0.9259	0.09409999999999996
N	0.9238999999999999	0.42589999999999995	0.09409999999999996
N	0.5761000000000001	0.5741	0.5941000000000001
N	0.07610000000000006	0.9259	0.40590000000000004
N	0.42389999999999994	0.07410000000000005	0.9059
