88

H	0.052200000000000024	0.517	0.7507
H	0.4478	0.016999999999999904	0.24929999999999997
H	0.9478	0.483	0.24929999999999997
H	0.5522	0.9830000000000001	0.7507
H	0.8951	0.5909	0.7035
H	0.6049	0.09089999999999998	0.2965
H	0.1049	0.4091	0.2965
H	0.3951	0.9091	0.7035
H	0.7759	0.3518	0.6969
H	0.7241	0.8518	0.30310000000000004
H	0.22409999999999997	0.6482	0.30310000000000004
H	0.27590000000000003	0.1482	0.6969
H	0.9412	0.283	0.7347
H	0.5588	0.7829999999999999	0.2653
H	0.05879999999999996	0.7170000000000001	0.2653
H	0.44120000000000004	0.21700000000000008	0.7347
H	0.858	0.43	0.5657
H	0.642	0.9299999999999999	0.4343
H	0.14200000000000002	0.5700000000000001	0.4343
H	0.358	0.07000000000000006	0.5657
H	0.030299999999999994	0.3816	0.6043
H	0.4697	0.8815999999999999	0.39570000000000005
H	0.9697	0.6184000000000001	0.39570000000000005
H	0.5303	0.11840000000000006	0.6043
H	0.788	0.1718	0.5622
H	0.712	0.6718	0.43779999999999997
H	0.21199999999999997	0.8282	0.43779999999999997
H	0.28800000000000003	0.32820000000000005	0.5622
H	0.9674	0.1347	0.586
H	0.5326	0.6347	0.41400000000000003
H	0.03259999999999996	0.8653	0.41400000000000003
H	0.46740000000000004	0.36529999999999996	0.586
H	0.8853	0.1167	0.4292
H	0.6147	0.6167	0.5708
H	0.11470000000000002	0.8833	0.5708
H	0.3853	0.3833	0.4292
H	0.0045999999999999375	0.2496	0.4494
H	0.49540000000000006	0.7496	0.5506
H	0.9954000000000001	0.7504	0.5506
H	0.5045999999999999	0.25039999999999996	0.4494
H	0.8244	0.2823	0.4253
H	0.6756	0.7823	0.5747
H	0.17559999999999998	0.7177	0.5747
H	0.3244	0.2177	0.4253
H	0.9285	0.6246	0.8493
H	0.5715	0.12460000000000004	0.15069999999999995
H	0.07150000000000001	0.37539999999999996	0.15069999999999995
H	0.4285	0.8754	0.8493
H	0.9434	0.465	0.8681
H	0.5566	0.9650000000000001	0.13190000000000002
H	0.056599999999999984	0.5349999999999999	0.13190000000000002
H	0.4434	0.03499999999999992	0.8681
H	0.7939	0.5267	0.824
H	0.7061	0.026699999999999946	0.17600000000000005
H	0.20609999999999995	0.47330000000000005	0.17600000000000005
H	0.29390000000000005	0.9733	0.824
C	0.939	0.5104	0.7438
C	0.561	0.010399999999999965	0.2562
C	0.061000000000000054	0.48960000000000004	0.2562
C	0.43899999999999995	0.9896	0.7438
C	0.888	0.3643	0.6987
C	0.612	0.8643000000000001	0.3013
C	0.11199999999999999	0.6356999999999999	0.3013
C	0.388	0.13569999999999993	0.6987
C	0.921	0.355	0.6026
C	0.579	0.855	0.3974
C	0.07899999999999996	0.645	0.3974
C	0.42100000000000004	0.14500000000000002	0.6026
C	0.892	0.207	0.5561
C	0.608	0.707	0.44389999999999996
C	0.10799999999999998	0.793	0.44389999999999996
C	0.392	0.29300000000000004	0.5561
C	0.902	0.215	0.4558
C	0.598	0.715	0.5442
C	0.09799999999999998	0.785	0.5442
C	0.402	0.28500000000000003	0.4558
I	0.95588	0.9251	0.78861
I	0.54412	0.42510000000000003	0.21138999999999997
I	0.04412000000000005	0.07489999999999997	0.21138999999999997
I	0.45587999999999995	0.5749	0.78861
I	0.70034	0.21391000000000004	0.96155
I	0.79966	0.71391	0.038449999999999984
I	0.29966000000000004	0.78609	0.038449999999999984
I	0.20033999999999996	0.28608999999999996	0.96155
N	0.8975	0.5338	0.829
N	0.6025	0.03380000000000005	0.17100000000000004
N	0.10250000000000004	0.46619999999999995	0.17100000000000004
N	0.39749999999999996	0.9662	0.829
