dataset/hoip2d/hoip2d_2.xyz
 OpenBabel03142210543D

120 64  0  0  0  0  0  0  0  0999 V2000
    0.8371    0.4864    0.1103 H   0  0  0  0  0  0  0  0  0  0  0  0
    0.6629    0.5136    0.6103 H   0  0  0  0  0  0  0  0  0  0  0  0
    0.3371    0.0136    0.8897 H   0  0  0  0  0  0  0  0  0  0  0  0
    0.1629    0.9864    0.3897 H   0  0  0  0  0  0  0  0  0  0  0  0
    0.1629    0.5136    0.8897 H   0  0  0  0  0  0  0  0  0  0  0  0
    0.3371    0.4864    0.3897 H   0  0  0  0  0  0  0  0  0  0  0  0
    0.6629    0.9864    0.1103 H   0  0  0  0  0  0  0  0  0  0  0  0
    0.8371    0.0136    0.6103 H   0  0  0  0  0  0  0  0  0  0  0  0
    0.0973    0.5577    0.1825 H   0  0  0  0  0  0  0  0  0  0  0  0
    0.4027    0.4423    0.6825 H   0  0  0  0  0  0  0  0  0  0  0  0
    0.5973    0.9423    0.8175 H   0  0  0  0  0  0  0  0  0  0  0  0
    0.9027    0.0577    0.3175 H   0  0  0  0  0  0  0  0  0  0  0  0
    0.9027    0.4423    0.8175 H   0  0  0  0  0  0  0  0  0  0  0  0
    0.5973    0.5577    0.3175 H   0  0  0  0  0  0  0  0  0  0  0  0
    0.4027    0.0577    0.1825 H   0  0  0  0  0  0  0  0  0  0  0  0
    0.0973    0.9423    0.6825 H   0  0  0  0  0  0  0  0  0  0  0  0
    0.7673    0.6715    0.1762 H   0  0  0  0  0  0  0  0  0  0  0  0
    0.7327    0.3285    0.6762 H   0  0  0  0  0  0  0  0  0  0  0  0
    0.2673    0.8285    0.8238 H   0  0  0  0  0  0  0  0  0  0  0  0
    0.2327    0.1715    0.3238 H   0  0  0  0  0  0  0  0  0  0  0  0
    0.2327    0.3285    0.8238 H   0  0  0  0  0  0  0  0  0  0  0  0
    0.2673    0.6715    0.3238 H   0  0  0  0  0  0  0  0  0  0  0  0
    0.7327    0.1715    0.1762 H   0  0  0  0  0  0  0  0  0  0  0  0
    0.7673    0.8285    0.6762 H   0  0  0  0  0  0  0  0  0  0  0  0
    0.8154    0.6382    0.2676 H   0  0  0  0  0  0  0  0  0  0  0  0
    0.6846    0.3618    0.7676 H   0  0  0  0  0  0  0  0  0  0  0  0
    0.3154    0.8618    0.7324 H   0  0  0  0  0  0  0  0  0  0  0  0
    0.1846    0.1382    0.2324 H   0  0  0  0  0  0  0  0  0  0  0  0
    0.1846    0.3618    0.7324 H   0  0  0  0  0  0  0  0  0  0  0  0
    0.3154    0.6382    0.2324 H   0  0  0  0  0  0  0  0  0  0  0  0
    0.6846    0.1382    0.2676 H   0  0  0  0  0  0  0  0  0  0  0  0
    0.8154    0.8618    0.7676 H   0  0  0  0  0  0  0  0  0  0  0  0
    0.9836    0.5143    0.2508 H   0  0  0  0  0  0  0  0  0  0  0  0
    0.5164    0.4857    0.7508 H   0  0  0  0  0  0  0  0  0  0  0  0
    0.4836    0.9857    0.7492 H   0  0  0  0  0  0  0  0  0  0  0  0
    0.0164    0.0143    0.2492 H   0  0  0  0  0  0  0  0  0  0  0  0
    0.0164    0.4857    0.7492 H   0  0  0  0  0  0  0  0  0  0  0  0
    0.4836    0.5143    0.2492 H   0  0  0  0  0  0  0  0  0  0  0  0
    0.5164    0.0143    0.2508 H   0  0  0  0  0  0  0  0  0  0  0  0
    0.9836    0.9857    0.7508 H   0  0  0  0  0  0  0  0  0  0  0  0
    0.1812    0.4759    0.0935 H   0  0  0  0  0  0  0  0  0  0  0  0
    0.3188    0.5241    0.5935 H   0  0  0  0  0  0  0  0  0  0  0  0
    0.6812    0.0241    0.9065 H   0  0  0  0  0  0  0  0  0  0  0  0
    0.8188    0.9759    0.4065 H   0  0  0  0  0  0  0  0  0  0  0  0
    0.8188    0.5241    0.9065 H   0  0  0  0  0  0  0  0  0  0  0  0
    0.6812    0.4759    0.4065 H   0  0  0  0  0  0  0  0  0  0  0  0
    0.3188    0.9759    0.0935 H   0  0  0  0  0  0  0  0  0  0  0  0
    0.1812    0.0241    0.5935 H   0  0  0  0  0  0  0  0  0  0  0  0
    0.0732    0.3200    0.0962 H   0  0  0  0  0  0  0  0  0  0  0  0
    0.4268    0.6800    0.5962 H   0  0  0  0  0  0  0  0  0  0  0  0
    0.5732    0.1800    0.9038 H   0  0  0  0  0  0  0  0  0  0  0  0
    0.9268    0.8200    0.4038 H   0  0  0  0  0  0  0  0  0  0  0  0
    0.9268    0.6800    0.9038 H   0  0  0  0  0  0  0  0  0  0  0  0
    0.5732    0.3200    0.4038 H   0  0  0  0  0  0  0  0  0  0  0  0
    0.4268    0.8200    0.0962 H   0  0  0  0  0  0  0  0  0  0  0  0
    0.0732    0.1800    0.5962 H   0  0  0  0  0  0  0  0  0  0  0  0
    0.0544    0.4431    0.0508 H   0  0  0  0  0  0  0  0  0  0  0  0
    0.4456    0.5569    0.5508 H   0  0  0  0  0  0  0  0  0  0  0  0
    0.5544    0.0569    0.9492 H   0  0  0  0  0  0  0  0  0  0  0  0
    0.9456    0.9431    0.4492 H   0  0  0  0  0  0  0  0  0  0  0  0
    0.9456    0.5569    0.9492 H   0  0  0  0  0  0  0  0  0  0  0  0
    0.5544    0.4431    0.4492 H   0  0  0  0  0  0  0  0  0  0  0  0
    0.4456    0.9431    0.0508 H   0  0  0  0  0  0  0  0  0  0  0  0
    0.0544    0.0569    0.5508 H   0  0  0  0  0  0  0  0  0  0  0  0
    0.9500    0.5310    0.1180 C   0  0  0  0  0  0  0  0  0  0  0  0
    0.5500    0.4690    0.6180 C   0  0  0  0  0  0  0  0  0  0  0  0
    0.4500    0.9690    0.8820 C   0  0  0  0  0  0  0  0  0  0  0  0
    0.0500    0.0310    0.3820 C   0  0  0  0  0  0  0  0  0  0  0  0
    0.0500    0.4690    0.8820 C   0  0  0  0  0  0  0  0  0  0  0  0
    0.4500    0.5310    0.3820 C   0  0  0  0  0  0  0  0  0  0  0  0
    0.5500    0.0310    0.1180 C   0  0  0  0  0  0  0  0  0  0  0  0
    0.9500    0.9690    0.6180 C   0  0  0  0  0  0  0  0  0  0  0  0
    0.9870    0.5100    0.1730 C   0  0  0  0  0  0  0  0  0  0  0  0
    0.5130    0.4900    0.6730 C   0  0  0  0  0  0  0  0  0  0  0  0
    0.4870    0.9900    0.8270 C   0  0  0  0  0  0  0  0  0  0  0  0
    0.0130    0.0100    0.3270 C   0  0  0  0  0 15  0  0  0  0  0  0
    0.0130    0.4900    0.8270 C   0  0  0  0  0  0  0  0  0  0  0  0
    0.4870    0.5100    0.3270 C   0  0  0  0  0  0  0  0  0  0  0  0
    0.5130    0.0100    0.1730 C   0  0  0  0  0  0  0  0  0  0  0  0
    0.9870    0.9900    0.6730 C   0  0  0  0  0 15  0  0  0  0  0  0
    0.8570    0.6060    0.1940 C   0  0  0  0  0  1  0  0  0  0  0  0
    0.6430    0.3940    0.6940 C   0  0  0  0  0  0  0  0  0  0  0  0
    0.3570    0.8940    0.8060 C   0  0  0  0  0  1  0  0  0  0  0  0
    0.1430    0.1060    0.3060 C   0  0  0  0  0  0  0  0  0  0  0  0
    0.1430    0.3940    0.8060 C   0  0  0  0  0  1  0  0  0  0  0  0
    0.3570    0.6060    0.3060 C   0  0  0  0  0  0  0  0  0  0  0  0
    0.6430    0.1060    0.1940 C   0  0  0  0  0  1  0  0  0  0  0  0
    0.8570    0.8940    0.6940 C   0  0  0  0  0  0  0  0  0  0  0  0
    0.8870    0.5850    0.2400 C   0  0  0  0  0  1  0  0  0  0  0  0
    0.6130    0.4150    0.7400 C   0  0  0  0  0  0  0  0  0  0  0  0
    0.3870    0.9150    0.7600 C   0  0  0  0  0 15  0  0  0  0  0  0
    0.1130    0.0850    0.2600 C   0  0  0  0  0  1  0  0  0  0  0  0
    0.1130    0.4150    0.7600 C   0  0  0  0  0  1  0  0  0  0  0  0
    0.3870    0.5850    0.2600 C   0  0  0  0  0  0  0  0  0  0  0  0
    0.6130    0.0850    0.2400 C   0  0  0  0  0 15  0  0  0  0  0  0
    0.8870    0.9150    0.7400 C   0  0  0  0  0  1  0  0  0  0  0  0
    0.0376    0.0133    0.1140 I   0  0  0  0  0  0  0  0  0  0  0  0
    0.4624    0.9867    0.6140 I   0  0  0  0  0  0  0  0  0  0  0  0
    0.5376    0.4867    0.8860 I   0  0  0  0  0  0  0  0  0  0  0  0
    0.9624    0.5133    0.3860 I   0  0  0  0  0  0  0  0  0  0  0  0
    0.9624    0.9867    0.8860 I   0  0  0  0  0  0  0  0  0  0  0  0
    0.5376    0.0133    0.3860 I   0  0  0  0  0  0  0  0  0  0  0  0
    0.4624    0.5133    0.1140 I   0  0  0  0  0  0  0  0  0  0  0  0
    0.0376    0.4867    0.6140 I   0  0  0  0  0  0  0  0  0  0  0  0
    0.2081    0.7063    0.9938 I   0  0  0  0  0  0  0  0  0  0  0  0
    0.2919    0.2937    0.4938 I   0  0  0  0  0  0  0  0  0  0  0  0
    0.7081    0.7937    0.0062 I   0  0  0  0  0  0  0  0  0  0  0  0
    0.7919    0.2063    0.5062 I   0  0  0  0  0  0  0  0  0  0  0  0
    0.7919    0.2937    0.0062 I   0  0  0  0  0  0  0  0  0  0  0  0
    0.7081    0.7063    0.5062 I   0  0  0  0  0  0  0  0  0  0  0  0
    0.2919    0.2063    0.9938 I   0  0  0  0  0  0  0  0  0  0  0  0
    0.2081    0.7937    0.4938 I   0  0  0  0  0  0  0  0  0  0  0  0
    0.0770    0.4330    0.0866 N   0  0  0  0  0  0  0  0  0  0  0  0
    0.4230    0.5670    0.5866 N   0  0  0  0  0  0  0  0  0  0  0  0
    0.5770    0.0670    0.9134 N   0  0  0  0  0  0  0  0  0  0  0  0
    0.9230    0.9330    0.4134 N   0  0  0  0  0  0  0  0  0  0  0  0
    0.9230    0.5670    0.9134 N   0  0  0  0  0  0  0  0  0  0  0  0
    0.5770    0.4330    0.4134 N   0  0  0  0  0  0  0  0  0  0  0  0
    0.4230    0.9330    0.0866 N   0  0  0  0  0  0  0  0  0  0  0  0
    0.0770    0.0670    0.5866 N   0  0  0  0  0  0  0  0  0  0  0  0
  1118  1  0  0  0  0
  2117  1  0  0  0  0
  7116  1  0  0  0  0
  8115  1  0  0  0  0
  9 70  1  0  0  0  0
 10 69  1  0  0  0  0
 15 68  1  0  0  0  0
 16 67  1  0  0  0  0
 17 70  1  0  0  0  0
 19 77  1  0  0  0  0
 22118  1  0  0  0  0
 24 67  1  0  0  0  0
 28102  1  0  0  0  0
 29 99  1  0  0  0  0
 34 93  1  0  0  0  0
 39 92  1  0  0  0  0
 42 83  1  0  0  0  0
 47 86  1  0  0  0  0
 49 68  1  0  0  0  0
 50 67  1  0  0  0  0
 55 70  1  0  0  0  0
 56 69  1  0  0  0  0
 57 94  1  0  0  0  0
 63 94  1  0  0  0  0
 65 14  1  0  0  0  0
 65 52  1  0  0  0  0
 66 13  1  0  0  0  0
 66 21  1  0  0  0  0
 66 51  1  0  0  0  0
 70 90  1  0  0  0  0
 71 12  1  0  0  0  0
 71 20  1  0  0  0  0
 71 54  1  0  0  0  0
 72 11  1  0  0  0  0
 72 53  1  0  0  0  0
 73 23  1  0  0  0  0
 74 85  1  0  0  0  0
 77111  1  0  0  0  0
 78 82  1  0  0  0  0
 79 84  3  0  0  0  0
 81 78  1  0  0  0  0
 82 43  1  0  0  0  0
 86110  1  0  0  0  0
 86 74  1  0  0  0  0
 87 46  1  0  0  0  0
 88 75  3  0  0  0  0
 89 38  1  0  0  0  0
 90 61  1  0  0  0  0
 90 59  1  0  0  0  0
 94 66  1  0  0  0  0
 96 35  1  0  0  0  0
 98 32  1  0  0  0  0
100116  1  0  0  0  0
101117  1  0  0  0  0
103 25  1  0  0  0  0
106 82  1  0  0  0  0
107 73  1  0  0  0  0
113 97  1  0  0  0  0
113  6  1  0  0  0  0
114 18  1  0  0  0  0
114  5  1  0  0  0  0
119  4  1  0  0  0  0
120104  1  0  0  0  0
120  3  1  0  0  0  0
M  RAD  8  26   2  27   2  30   2  31   2  33   2  36   2  37   2  40   2
M  RAD  8  41   2  44   2  45   2  48   2  58   2  60   2  62   2  64   2
M  RAD  8  65   3  67   2  68   3  69   3  71   2  72   3  73   3  74   3
M  RAD  8  75   2  77   3  78   3  79   2  82   2  84   2  86   2  88   2
M  RAD  8  90   2  94   2 105   2 108   2 109   2 112   2 113   2 114   2
M  RAD  6 115   3 116   2 117   2 118   2 119   3 120   2
M  END
