216

H	0.97721	0.332665	0.983186
H	0.97721	0.667335	0.016814
H	0.97721	0.832665	0.516814
H	0.97721	0.167335	0.483186
H	0.47721	0.832665	0.983186
H	0.47721	0.167335	0.016814
H	0.47721	0.332665	0.516814
H	0.47721	0.667335	0.483186
H	0.140349	0.32554	0.999742
H	0.140349	0.6744600000000001	0.000258
H	0.140349	0.8255399999999999	0.500258
H	0.140349	0.17446	0.499742
H	0.6403490000000001	0.8255399999999999	0.999742
H	0.6403490000000001	0.17446	0.000258
H	0.6403490000000001	0.32554	0.500258
H	0.6403490000000001	0.6744600000000001	0.499742
H	0.058807	0.318787	0.856982
H	0.058807	0.6812130000000001	0.143018
H	0.058807	0.8187869999999999	0.643018
H	0.058807	0.181213	0.356982
H	0.558807	0.8187869999999999	0.856982
H	0.558807	0.181213	0.143018
H	0.558807	0.318787	0.643018
H	0.558807	0.6812130000000001	0.356982
H	0.073194	0.286733	0.114433
H	0.073194	0.713267	0.885567
H	0.073194	0.786733	0.385567
H	0.073194	0.21326699999999998	0.614433
H	0.573194	0.786733	0.114433
H	0.573194	0.21326699999999998	0.885567
H	0.573194	0.286733	0.385567
H	0.573194	0.713267	0.614433
H	0.896921	0.291767	0.061813
H	0.896921	0.708233	0.938187
H	0.896921	0.791767	0.438187
H	0.896921	0.208233	0.561813
H	0.39692099999999997	0.791767	0.061813
H	0.39692099999999997	0.208233	0.938187
H	0.39692099999999997	0.291767	0.438187
H	0.39692099999999997	0.708233	0.561813
H	0.005579	0.249863	0.946447
H	0.005579	0.750137	0.053553
H	0.005579	0.749863	0.553553
H	0.005579	0.250137	0.446447
H	0.505579	0.749863	0.946447
H	0.505579	0.250137	0.053553
H	0.505579	0.249863	0.553553
H	0.505579	0.750137	0.446447
H	0.94703	0.27189	0.81803
H	0.94703	0.72811	0.18197
H	0.94703	0.77189	0.68197
H	0.94703	0.22810999999999998	0.31803000000000003
H	0.44703	0.77189	0.81803
H	0.44703	0.22810999999999998	0.18197
H	0.44703	0.27189	0.68197
H	0.44703	0.72811	0.31803000000000003
H	0.128363	0.269432	0.857329
H	0.128363	0.730568	0.142671
H	0.128363	0.769432	0.642671
H	0.128363	0.230568	0.357329
H	0.628363	0.769432	0.857329
H	0.628363	0.230568	0.142671
H	0.628363	0.269432	0.642671
H	0.628363	0.730568	0.357329
H	0.076941	0.410501	0.055319
H	0.076941	0.589499	0.944681
H	0.076941	0.910501	0.444681
H	0.076941	0.089499	0.555319
H	0.576941	0.910501	0.055319
H	0.576941	0.089499	0.944681
H	0.576941	0.410501	0.444681
H	0.576941	0.589499	0.555319
H	0.140703	0.436452	0.992223
H	0.140703	0.5635479999999999	0.007777
H	0.140703	0.9364520000000001	0.507777
H	0.140703	0.063548	0.492223
H	0.640703	0.9364520000000001	0.992223
H	0.640703	0.063548	0.007777
H	0.640703	0.436452	0.507777
H	0.640703	0.5635479999999999	0.492223
H	0.153416	0.430581	0.157148
H	0.153416	0.569419	0.8428519999999999
H	0.153416	0.930581	0.342852
H	0.153416	0.06941900000000001	0.6571480000000001
H	0.653416	0.930581	0.157148
H	0.653416	0.06941900000000001	0.8428519999999999
H	0.653416	0.430581	0.342852
H	0.653416	0.569419	0.6571480000000001
H	0.87581	0.44305	0.00631
H	0.87581	0.5569500000000001	0.99369
H	0.87581	0.9430499999999999	0.49369
H	0.87581	0.05695	0.50631
H	0.37581	0.9430499999999999	0.00631
H	0.37581	0.05695	0.99369
H	0.37581	0.44305	0.49369
H	0.37581	0.5569500000000001	0.50631
H	0.881823	0.433985	0.185375
H	0.881823	0.5660149999999999	0.8146249999999999
H	0.881823	0.9339850000000001	0.314625
H	0.881823	0.06601499999999999	0.6853750000000001
H	0.381823	0.9339850000000001	0.185375
H	0.381823	0.06601499999999999	0.8146249999999999
H	0.381823	0.433985	0.314625
H	0.381823	0.5660149999999999	0.6853750000000001
H	0.8706929999999999	0.482862	0.185433
H	0.8706929999999999	0.517138	0.814567
H	0.8706929999999999	0.982862	0.31456700000000004
H	0.8706929999999999	0.017137999999999987	0.685433
H	0.370693	0.982862	0.185433
H	0.370693	0.017137999999999987	0.814567
H	0.370693	0.482862	0.31456700000000004
H	0.370693	0.517138	0.685433
H	0.046102	0.475078	0.230224
H	0.046102	0.524922	0.769776
H	0.046102	0.975078	0.269776
H	0.046102	0.024922	0.730224
H	0.546102	0.975078	0.230224
H	0.546102	0.024922	0.769776
H	0.546102	0.475078	0.269776
H	0.546102	0.524922	0.730224
H	0.004931	0.484959	0.057196
H	0.004931	0.5150410000000001	0.942804
H	0.004931	0.9849589999999999	0.442804
H	0.004931	0.015041000000000027	0.557196
H	0.504931	0.9849589999999999	0.057196
H	0.504931	0.015041000000000027	0.942804
H	0.504931	0.484959	0.442804
H	0.504931	0.5150410000000001	0.557196
C	0.005	0.2912	0.026
C	0.005	0.7088	0.974
C	0.005	0.7912	0.474
C	0.005	0.20879999999999999	0.526
C	0.505	0.7912	0.026
C	0.505	0.20879999999999999	0.974
C	0.505	0.2912	0.474
C	0.505	0.7088	0.526
C	0.023	0.2686	0.901
C	0.023	0.7314	0.099
C	0.023	0.7686	0.599
C	0.023	0.2314	0.401
C	0.523	0.7686	0.901
C	0.523	0.2314	0.099
C	0.523	0.2686	0.599
C	0.523	0.7314	0.401
C	0.938	0.4436	0.102
C	0.938	0.5564	0.898
C	0.938	0.9436	0.398
C	0.938	0.056400000000000006	0.602
C	0.438	0.9436	0.102
C	0.438	0.056400000000000006	0.898
C	0.438	0.4436	0.398
C	0.438	0.5564	0.602
C	0.968	0.4744	0.148
C	0.968	0.5256000000000001	0.852
C	0.968	0.9743999999999999	0.352
C	0.968	0.02560000000000001	0.648
C	0.46799999999999997	0.9743999999999999	0.148
C	0.46799999999999997	0.02560000000000001	0.852
C	0.46799999999999997	0.4744	0.352
C	0.46799999999999997	0.5256000000000001	0.648
Br	0.0498	0.06419	0.002
Br	0.0498	0.93581	0.998
Br	0.0498	0.56419	0.498
Br	0.0498	0.43581000000000003	0.502
Br	0.5498	0.56419	0.002
Br	0.5498	0.43581000000000003	0.998
Br	0.5498	0.06419	0.498
Br	0.5498	0.93581	0.502
Br	0.2435	0.00446	0.2969
Br	0.2435	0.99554	0.7031000000000001
Br	0.2435	0.50446	0.2031
Br	0.2435	0.49554	0.7968999999999999
Br	0.7435	0.50446	0.2969
Br	0.7435	0.49554	0.7031000000000001
Br	0.7435	0.00446	0.2031
Br	0.7435	0.99554	0.7968999999999999
Br	0.8056	0.142	0.766
Br	0.8056	0.858	0.234
Br	0.8056	0.642	0.734
Br	0.8056	0.358	0.266
Br	0.3056	0.642	0.766
Br	0.3056	0.358	0.234
Br	0.3056	0.142	0.734
Br	0.3056	0.858	0.266
Br	0.2826	0.1345	0.2485
Br	0.2826	0.8654999999999999	0.7515000000000001
Br	0.2826	0.6345000000000001	0.2515
Br	0.2826	0.3655	0.7484999999999999
Br	0.7826	0.6345000000000001	0.2485
Br	0.7826	0.3655	0.7515000000000001
Br	0.7826	0.1345	0.2515
Br	0.7826	0.8654999999999999	0.7484999999999999
Br	0.048	0.19399	0.9417
Br	0.048	0.80601	0.0583
Br	0.048	0.69399	0.5583
Br	0.048	0.30601	0.4417
Br	0.548	0.69399	0.9417
Br	0.548	0.30601	0.0583
Br	0.548	0.19399	0.5583
Br	0.548	0.80601	0.4417
N	0.05	0.3201	0.96
N	0.05	0.6799	0.04
N	0.05	0.8201	0.54
N	0.05	0.1799	0.46
N	0.55	0.8201	0.96
N	0.55	0.1799	0.04
N	0.55	0.3201	0.54
N	0.55	0.6799	0.46
N	0.094	0.4287	0.074
N	0.094	0.5712999999999999	0.926
N	0.094	0.9287000000000001	0.426
N	0.094	0.07129999999999997	0.574
N	0.594	0.9287000000000001	0.074
N	0.594	0.07129999999999997	0.926
N	0.594	0.4287	0.426
N	0.594	0.5712999999999999	0.574
