dataset/hoip2d/hoip2d_14.xyz
 OpenBabel03142210543D

216 76  0  0  0  0  0  0  0  0999 V2000
    0.5894    0.6731    0.2209 H   0  0  0  0  0  0  0  0  0  0  0  0
    0.0894    0.3269    0.7791 H   0  0  0  0  0  0  0  0  0  0  0  0
    0.0894    0.6731    0.7791 H   0  0  0  0  0  0  0  0  0  0  0  0
    0.5894    0.3269    0.2209 H   0  0  0  0  0  0  0  0  0  0  0  0
    0.5894    0.1731    0.7209 H   0  0  0  0  0  0  0  0  0  0  0  0
    0.0894    0.8269    0.2791 H   0  0  0  0  0  0  0  0  0  0  0  0
    0.0894    0.1731    0.2791 H   0  0  0  0  0  0  0  0  0  0  0  0
    0.5894    0.8269    0.7209 H   0  0  0  0  0  0  0  0  0  0  0  0
    0.4285    0.6746    0.2939 H   0  0  0  0  0  0  0  0  0  0  0  0
    0.9285    0.3254    0.7061 H   0  0  0  0  0  0  0  0  0  0  0  0
    0.9285    0.6746    0.7061 H   0  0  0  0  0  0  0  0  0  0  0  0
    0.4285    0.3254    0.2939 H   0  0  0  0  0  0  0  0  0  0  0  0
    0.4285    0.1746    0.7939 H   0  0  0  0  0  0  0  0  0  0  0  0
    0.9285    0.8254    0.2061 H   0  0  0  0  0  0  0  0  0  0  0  0
    0.9285    0.1746    0.2061 H   0  0  0  0  0  0  0  0  0  0  0  0
    0.4285    0.8254    0.7939 H   0  0  0  0  0  0  0  0  0  0  0  0
    0.4486    0.6801    0.1218 H   0  0  0  0  0  0  0  0  0  0  0  0
    0.9486    0.3199    0.8781 H   0  0  0  0  0  0  0  0  0  0  0  0
    0.9486    0.6801    0.8781 H   0  0  0  0  0  0  0  0  0  0  0  0
    0.4486    0.3199    0.1218 H   0  0  0  0  0  0  0  0  0  0  0  0
    0.4486    0.1801    0.6219 H   0  0  0  0  0  0  0  0  0  0  0  0
    0.9486    0.8199    0.3781 H   0  0  0  0  0  0  0  0  0  0  0  0
    0.9486    0.1801    0.3781 H   0  0  0  0  0  0  0  0  0  0  0  0
    0.4486    0.8199    0.6219 H   0  0  0  0  0  0  0  0  0  0  0  0
    0.4204    0.7223    0.3012 H   0  0  0  0  0  0  0  0  0  0  0  0
    0.9204    0.2777    0.6988 H   0  0  0  0  0  0  0  0  0  0  0  0
    0.9204    0.7223    0.6988 H   0  0  0  0  0  0  0  0  0  0  0  0
    0.4204    0.2777    0.3012 H   0  0  0  0  0  0  0  0  0  0  0  0
    0.4204    0.2223    0.8012 H   0  0  0  0  0  0  0  0  0  0  0  0
    0.9204    0.7777    0.1988 H   0  0  0  0  0  0  0  0  0  0  0  0
    0.9204    0.2223    0.1988 H   0  0  0  0  0  0  0  0  0  0  0  0
    0.4204    0.7777    0.8012 H   0  0  0  0  0  0  0  0  0  0  0  0
    0.5484    0.7242    0.1534 H   0  0  0  0  0  0  0  0  0  0  0  0
    0.0484    0.2758    0.8466 H   0  0  0  0  0  0  0  0  0  0  0  0
    0.0484    0.7242    0.8466 H   0  0  0  0  0  0  0  0  0  0  0  0
    0.5484    0.2758    0.1534 H   0  0  0  0  0  0  0  0  0  0  0  0
    0.5484    0.2242    0.6534 H   0  0  0  0  0  0  0  0  0  0  0  0
    0.0484    0.7758    0.3466 H   0  0  0  0  0  0  0  0  0  0  0  0
    0.0484    0.2242    0.3466 H   0  0  0  0  0  0  0  0  0  0  0  0
    0.5484    0.7758    0.6534 H   0  0  0  0  0  0  0  0  0  0  0  0
    0.6179    0.7156    0.4862 H   0  0  0  0  0  0  0  0  0  0  0  0
    0.1179    0.2844    0.5138 H   0  0  0  0  0  0  0  0  0  0  0  0
    0.1179    0.7156    0.5138 H   0  0  0  0  0  0  0  0  0  0  0  0
    0.6179    0.2844    0.4862 H   0  0  0  0  0  0  0  0  0  0  0  0
    0.6179    0.2156    0.9862 H   0  0  0  0  0  0  0  0  0  0  0  0
    0.1179    0.7844    0.0138 H   0  0  0  0  0  0  0  0  0  0  0  0
    0.1179    0.2156    0.0138 H   0  0  0  0  0  0  0  0  0  0  0  0
    0.6179    0.7844    0.9862 H   0  0  0  0  0  0  0  0  0  0  0  0
    0.7406    0.7018    0.3566 H   0  0  0  0  0  0  0  0  0  0  0  0
    0.2406    0.2982    0.6434 H   0  0  0  0  0  0  0  0  0  0  0  0
    0.2406    0.7018    0.6434 H   0  0  0  0  0  0  0  0  0  0  0  0
    0.7406    0.2982    0.3566 H   0  0  0  0  0  0  0  0  0  0  0  0
    0.7406    0.2018    0.8566 H   0  0  0  0  0  0  0  0  0  0  0  0
    0.2406    0.7982    0.1434 H   0  0  0  0  0  0  0  0  0  0  0  0
    0.2406    0.2018    0.1434 H   0  0  0  0  0  0  0  0  0  0  0  0
    0.7406    0.7982    0.8566 H   0  0  0  0  0  0  0  0  0  0  0  0
    0.7133    0.7359    0.3613 H   0  0  0  0  0  0  0  0  0  0  0  0
    0.2133    0.2641    0.6387 H   0  0  0  0  0  0  0  0  0  0  0  0
    0.2133    0.7359    0.6387 H   0  0  0  0  0  0  0  0  0  0  0  0
    0.7133    0.2641    0.3613 H   0  0  0  0  0  0  0  0  0  0  0  0
    0.7133    0.2359    0.8613 H   0  0  0  0  0  0  0  0  0  0  0  0
    0.2133    0.7641    0.1387 H   0  0  0  0  0  0  0  0  0  0  0  0
    0.2133    0.2359    0.1387 H   0  0  0  0  0  0  0  0  0  0  0  0
    0.7133    0.7641    0.8613 H   0  0  0  0  0  0  0  0  0  0  0  0
    0.1921    0.4490    0.8589 H   0  0  0  0  0  0  0  0  0  0  0  0
    0.6921    0.5510    0.1411 H   0  0  0  0  0  0  0  0  0  0  0  0
    0.6921    0.4490    0.1411 H   0  0  0  0  0  0  0  0  0  0  0  0
    0.1921    0.5510    0.8589 H   0  0  0  0  0  0  0  0  0  0  0  0
    0.1921    0.9490    0.3589 H   0  0  0  0  0  0  0  0  0  0  0  0
    0.6921    0.0510    0.6411 H   0  0  0  0  0  0  0  0  0  0  0  0
    0.6921    0.9490    0.6411 H   0  0  0  0  0  0  0  0  0  0  0  0
    0.1921    0.0510    0.3589 H   0  0  0  0  0  0  0  0  0  0  0  0
    0.0232    0.4583    0.8502 H   0  0  0  0  0  0  0  0  0  0  0  0
    0.5232    0.5417    0.1498 H   0  0  0  0  0  0  0  0  0  0  0  0
    0.5232    0.4583    0.1498 H   0  0  0  0  0  0  0  0  0  0  0  0
    0.0232    0.5417    0.8502 H   0  0  0  0  0  0  0  0  0  0  0  0
    0.0232    0.9583    0.3502 H   0  0  0  0  0  0  0  0  0  0  0  0
    0.5232    0.0417    0.6498 H   0  0  0  0  0  0  0  0  0  0  0  0
    0.5232    0.9583    0.6498 H   0  0  0  0  0  0  0  0  0  0  0  0
    0.0232    0.0417    0.3502 H   0  0  0  0  0  0  0  0  0  0  0  0
    0.0633    0.4303    0.9174 H   0  0  0  0  0  0  0  0  0  0  0  0
    0.5633    0.5697    0.0826 H   0  0  0  0  0  0  0  0  0  0  0  0
    0.5633    0.4303    0.0826 H   0  0  0  0  0  0  0  0  0  0  0  0
    0.0633    0.5697    0.9174 H   0  0  0  0  0  0  0  0  0  0  0  0
    0.0633    0.9303    0.4174 H   0  0  0  0  0  0  0  0  0  0  0  0
    0.5633    0.0697    0.5826 H   0  0  0  0  0  0  0  0  0  0  0  0
    0.5633    0.9303    0.5826 H   0  0  0  0  0  0  0  0  0  0  0  0
    0.0633    0.0697    0.4174 H   0  0  0  0  0  0  0  0  0  0  0  0
    0.1782    0.4203    0.6455 H   0  0  0  0  0  0  0  0  0  0  0  0
    0.6782    0.5797    0.3545 H   0  0  0  0  0  0  0  0  0  0  0  0
    0.6782    0.4203    0.3545 H   0  0  0  0  0  0  0  0  0  0  0  0
    0.1782    0.5797    0.6455 H   0  0  0  0  0  0  0  0  0  0  0  0
    0.1782    0.9203    0.1455 H   0  0  0  0  0  0  0  0  0  0  0  0
    0.6782    0.0797    0.8545 H   0  0  0  0  0  0  0  0  0  0  0  0
    0.6782    0.9203    0.8545 H   0  0  0  0  0  0  0  0  0  0  0  0
    0.1782    0.0797    0.1455 H   0  0  0  0  0  0  0  0  0  0  0  0
    0.0489    0.4448    0.5947 H   0  0  0  0  0  0  0  0  0  0  0  0
    0.5489    0.5552    0.4053 H   0  0  0  0  0  0  0  0  0  0  0  0
    0.5489    0.4448    0.4053 H   0  0  0  0  0  0  0  0  0  0  0  0
    0.0489    0.5552    0.5947 H   0  0  0  0  0  0  0  0  0  0  0  0
    0.0489    0.9448    0.0947 H   0  0  0  0  0  0  0  0  0  0  0  0
    0.5489    0.0552    0.9053 H   0  0  0  0  0  0  0  0  0  0  0  0
    0.5489    0.9448    0.9053 H   0  0  0  0  0  0  0  0  0  0  0  0
    0.0489    0.0552    0.0947 H   0  0  0  0  0  0  0  0  0  0  0  0
    0.8835    0.4070    0.5717 H   0  0  0  0  0  0  0  0  0  0  0  0
    0.3835    0.5930    0.4283 H   0  0  0  0  0  0  0  0  0  0  0  0
    0.3835    0.4070    0.4283 H   0  0  0  0  0  0  0  0  0  0  0  0
    0.8835    0.5930    0.5717 H   0  0  0  0  0  0  0  0  0  0  0  0
    0.8835    0.9070    0.0717 H   0  0  0  0  0  0  0  0  0  0  0  0
    0.3835    0.0930    0.9283 H   0  0  0  0  0  0  0  0  0  0  0  0
    0.3835    0.9070    0.9283 H   0  0  0  0  0  0  0  0  0  0  0  0
    0.8835    0.0930    0.0717 H   0  0  0  0  0  0  0  0  0  0  0  0
    0.9834    0.3885    0.7019 H   0  0  0  0  0  0  0  0  0  0  0  0
    0.4834    0.6115    0.2981 H   0  0  0  0  0  0  0  0  0  0  0  0
    0.4834    0.3885    0.2981 H   0  0  0  0  0  0  0  0  0  0  0  0
    0.9834    0.6115    0.7019 H   0  0  0  0  0  0  0  0  0  0  0  0
    0.9834    0.8885    0.2019 H   0  0  0  0  0  0  0  0  0  0  0  0
    0.4834    0.1115    0.7981 H   0  0  0  0  0  0  0  0  0  0  0  0
    0.4834    0.8885    0.7981 H   0  0  0  0  0  0  0  0  0  0  0  0
    0.9834    0.1115    0.2019 H   0  0  0  0  0  0  0  0  0  0  0  0
    0.8583    0.4127    0.7613 H   0  0  0  0  0  0  0  0  0  0  0  0
    0.3583    0.5873    0.2387 H   0  0  0  0  0  0  0  0  0  0  0  0
    0.3583    0.4127    0.2387 H   0  0  0  0  0  0  0  0  0  0  0  0
    0.8583    0.5873    0.7613 H   0  0  0  0  0  0  0  0  0  0  0  0
    0.8583    0.9127    0.2613 H   0  0  0  0  0  0  0  0  0  0  0  0
    0.3583    0.0873    0.7387 H   0  0  0  0  0  0  0  0  0  0  0  0
    0.3583    0.9127    0.7387 H   0  0  0  0  0  0  0  0  0  0  0  0
    0.8583    0.0873    0.2613 H   0  0  0  0  0  0  0  0  0  0  0  0
    0.5200    0.7142    0.2540 C   0  0  0  0  0  0  0  0  0  0  0  0
    0.0200    0.2858    0.7460 C   0  0  0  0  0  0  0  0  0  0  0  0
    0.0200    0.7142    0.7460 C   0  0  0  0  0  0  0  0  0  0  0  0
    0.5200    0.2858    0.2540 C   0  0  0  0  0  0  0  0  0  0  0  0
    0.5200    0.2142    0.7540 C   0  0  0  0  0  0  0  0  0  0  0  0
    0.0200    0.7858    0.2460 C   0  0  0  0  0  1  0  0  0  0  0  0
    0.0200    0.2142    0.2460 C   0  0  0  0  0  1  0  0  0  0  0  0
    0.5200    0.7858    0.7540 C   0  0  0  0  0  0  0  0  0  0  0  0
    0.6610    0.7171    0.3750 C   0  0  0  0  0  0  0  0  0  0  0  0
    0.1610    0.2829    0.6250 C   0  0  0  0  0  1  0  0  0  0  0  0
    0.1610    0.7171    0.6250 C   0  0  0  0  0  1  0  0  0  0  0  0
    0.6610    0.2829    0.3750 C   0  0  0  0  0  0  0  0  0  0  0  0
    0.6610    0.2171    0.8750 C   0  0  0  0  0  0  0  0  0  0  0  0
    0.1610    0.7829    0.1250 C   0  0  0  0  0  1  0  0  0  0  0  0
    0.1610    0.2171    0.1250 C   0  0  0  0  0  1  0  0  0  0  0  0
    0.6610    0.7829    0.8750 C   0  0  0  0  0  1  0  0  0  0  0  0
    0.0750    0.4298    0.6740 C   0  0  0  0  0 15  0  0  0  0  0  0
    0.5750    0.5702    0.3260 C   0  0  0  0  0  1  0  0  0  0  0  0
    0.5750    0.4298    0.3260 C   0  0  0  0  0  1  0  0  0  0  0  0
    0.0750    0.5702    0.6740 C   0  0  0  0  0 15  0  0  0  0  0  0
    0.0750    0.9298    0.1740 C   0  0  0  0  0  1  0  0  0  0  0  0
    0.5750    0.0702    0.8260 C   0  0  0  0  0  1  0  0  0  0  0  0
    0.5750    0.9298    0.8260 C   0  0  0  0  0  1  0  0  0  0  0  0
    0.0750    0.0702    0.1740 C   0  0  0  0  0  1  0  0  0  0  0  0
    0.9380    0.4075    0.6780 C   0  0  0  0  0 15  0  0  0  0  0  0
    0.4380    0.5925    0.3220 C   0  0  0  0  0 15  0  0  0  0  0  0
    0.4380    0.4075    0.3220 C   0  0  0  0  0 15  0  0  0  0  0  0
    0.9380    0.5925    0.6780 C   0  0  0  0  0 15  0  0  0  0  0  0
    0.9380    0.9075    0.1780 C   0  0  0  0  0  1  0  0  0  0  0  0
    0.4380    0.0925    0.8220 C   0  0  0  0  0  1  0  0  0  0  0  0
    0.4380    0.9075    0.8220 C   0  0  0  0  0  1  0  0  0  0  0  0
    0.9380    0.0925    0.1780 C   0  0  0  0  0  1  0  0  0  0  0  0
    0.4940    0.6821    0.2190 N   0  0  0  0  0  0  0  0  0  0  0  0
    0.9940    0.3179    0.7810 N   0  0  0  0  0  0  0  0  0  0  0  0
    0.9940    0.6821    0.7810 N   0  0  0  0  0  0  0  0  0  0  0  0
    0.4940    0.3179    0.2190 N   0  0  0  0  0  0  0  0  0  0  0  0
    0.4940    0.1821    0.7190 N   0  0  0  0  0  0  0  0  0  0  0  0
    0.9940    0.8179    0.2810 N   0  0  0  0  0  0  0  0  0  0  0  0
    0.9940    0.1821    0.2810 N   0  0  0  0  0  0  0  0  0  0  0  0
    0.4940    0.8179    0.7190 N   0  0  0  0  0  0  0  0  0  0  0  0
    0.0900    0.4433    0.8430 N   0  0  0  0  0  0  0  0  0  0  0  0
    0.5900    0.5567    0.1570 N   0  0  0  0  0 15  0  0  0  0  0  0
    0.5900    0.4433    0.1570 N   0  0  0  0  0 15  0  0  0  0  0  0
    0.0900    0.5567    0.8430 N   0  0  0  0  0  0  0  0  0  0  0  0
    0.0900    0.9433    0.3430 N   0  0  0  0  0 15  0  0  0  0  0  0
    0.5900    0.0567    0.6570 N   0  0  0  0  0  0  0  0  0  0  0  0
    0.5900    0.9433    0.6570 N   0  0  0  0  0  0  0  0  0  0  0  0
    0.0900    0.0567    0.3430 N   0  0  0  0  0 15  0  0  0  0  0  0
    0.2290    0.3694    0.9940 Cl  0  0  0  0  0  0  0  0  0  0  0  0
    0.7290    0.6306    0.0060 Cl  0  0  0  0  0  0  0  0  0  0  0  0
    0.7290    0.3694    0.0060 Cl  0  0  0  0  0  0  0  0  0  0  0  0
    0.2290    0.6306    0.9940 Cl  0  0  0  0  0  0  0  0  0  0  0  0
    0.2290    0.8694    0.4940 Cl  0  0  0  0  0  0  0  0  0  0  0  0
    0.7290    0.1306    0.5060 Cl  0  0  0  0  0  0  0  0  0  0  0  0
    0.7290    0.8694    0.5060 Cl  0  0  0  0  0  0  0  0  0  0  0  0
    0.2290    0.1306    0.4940 Cl  0  0  0  0  0  0  0  0  0  0  0  0
    0.2380    0.3518    0.5030 Cl  0  0  0  0  0  0  0  0  0  0  0  0
    0.7380    0.6482    0.4970 Cl  0  0  0  0  0  0  0  0  0  0  0  0
    0.7380    0.3518    0.4970 Cl  0  0  0  0  0  0  0  0  0  0  0  0
    0.2380    0.6482    0.5030 Cl  0  0  0  0  0  0  0  0  0  0  0  0
    0.2380    0.8518    0.0030 Cl  0  0  0  0  0  0  0  0  0  0  0  0
    0.7380    0.1482    0.9970 Cl  0  0  0  0  0  0  0  0  0  0  0  0
    0.7380    0.8518    0.9970 Cl  0  0  0  0  0  0  0  0  0  0  0  0
    0.2380    0.1482    0.0030 Cl  0  0  0  0  0  0  0  0  0  0  0  0
    0.0110    0.4375    0.2250 Cl  0  0  0  0  0  0  0  0  0  0  0  0
    0.5110    0.5625    0.7750 Cl  0  0  0  0  0  0  0  0  0  0  0  0
    0.5110    0.4375    0.7750 Cl  0  0  0  0  0  0  0  0  0  0  0  0
    0.0110    0.5625    0.2250 Cl  0  0  0  0  0  0  0  0  0  0  0  0
    0.0110    0.9375    0.7250 Cl  0  0  0  0  0  0  0  0  0  0  0  0
    0.5110    0.0625    0.2750 Cl  0  0  0  0  0  0  0  0  0  0  0  0
    0.5110    0.9375    0.2750 Cl  0  0  0  0  0  0  0  0  0  0  0  0
    0.0110    0.0625    0.7250 Cl  0  0  0  0  0  0  0  0  0  0  0  0
    0.2250    0.5000    0.9607 Cl  0  0  0  0  0  0  0  0  0  0  0  0
    0.7250    0.5000    0.0393 Cl  0  0  0  0  0  0  0  0  0  0  0  0
    0.2250    0.0000    0.4607 Cl  0  0  0  0  0  0  0  0  0  0  0  0
    0.7250    0.0000    0.5393 Cl  0  0  0  0  0  0  0  0  0  0  0  0
    0.0120    0.3093    0.1842 Cl  0  0  0  0  0  0  0  0  0  0  0  0
    0.5120    0.6907    0.8158 Cl  0  0  0  0  0  0  0  0  0  0  0  0
    0.5120    0.3093    0.8158 Cl  0  0  0  0  0  0  0  0  0  0  0  0
    0.0120    0.6907    0.1842 Cl  0  0  0  0  0  0  0  0  0  0  0  0
    0.0120    0.8093    0.6842 Cl  0  0  0  0  0  0  0  0  0  0  0  0
    0.5120    0.1907    0.3158 Cl  0  0  0  0  0  0  0  0  0  0  0  0
    0.5120    0.8093    0.3158 Cl  0  0  0  0  0  0  0  0  0  0  0  0
    0.0120    0.1907    0.6842 Cl  0  0  0  0  0  0  0  0  0  0  0  0
    0.3100    0.5000    0.4340 Cl  0  0  0  0  0  0  0  0  0  0  0  0
    0.8100    0.5000    0.5660 Cl  0  0  0  0  0  0  0  0  0  0  0  0
    0.3100    0.0000    0.9340 Cl  0  0  0  0  0  0  0  0  0  0  0  0
    0.8100    0.0000    0.0660 Cl  0  0  0  0  0  0  0  0  0  0  0  0
  2158  1  0  0  0  0
  3159  1  0  0  0  0
 26133  1  0  0  0  0
 27136  1  0  0  0  0
 33164  1  0  0  0  0
 36161  1  0  0  0  0
 38131  1  0  0  0  0
 39130  1  0  0  0  0
 41151  1  0  0  0  0
 44150  1  0  0  0  0
 49175  1  0  0  0  0
 50194  1  0  0  0  0
 51195  1  0  0  0  0
 52174  1  0  0  0  0
 58215  1  0  0  0  0
 63213  1  0  0  0  0
 89165  1  0  0  0  0
 92168  1  0  0  0  0
 93161  1  0  0  0  0
 96164  1  0  0  0  0
 97200  1  0  0  0  0
100197  1  0  0  0  0
113141  1  0  0  0  0
116144  1  0  0  0  0
117137  1  0  0  0  0
120140  1  0  0  0  0
122181  1  0  0  0  0
123184  1  0  0  0  0
126177  1  0  0  0  0
127180  1  0  0  0  0
129 12  1  0  0  0  0
129 40  1  0  0  0  0
130131  1  0  0  0  0
130 29  1  0  0  0  0
131 32  1  0  0  0  0
132  9  1  0  0  0  0
132 37  1  0  0  0  0
134 25  1  0  0  0  0
135 28  1  0  0  0  0
137136  1  0  0  0  0
138207  1  0  0  0  0
139206  1  0  0  0  0
140133  1  0  0  0  0
142211  1  0  0  0  0
143210  1  0  0  0  0
146 24  1  0  0  0  0
147 21  1  0  0  0  0
149 43  1  0  0  0  0
152 42  1  0  0  0  0
157  1  1  0  0  0  0
160  4  1  0  0  0  0
162 94  1  0  0  0  0
163 95  1  0  0  0  0
166 90  1  0  0  0  0
167 91  1  0  0  0  0
178125  1  0  0  0  0
179128  1  0  0  0  0
182121  1  0  0  0  0
183124  1  0  0  0  0
185133  1  0  0  0  0
186 79  1  0  0  0  0
187 78  1  0  0  0  0
188136  1  0  0  0  0
189129  1  0  0  0  0
192132  1  0  0  0  0
193  6  1  0  0  0  0
196  7  1  0  0  0  0
198 99  1  0  0  0  0
199 98  1  0  0  0  0
202137  1  0  0  0  0
203165  1  0  0  0  0
204141  1  0  0  0  0
209169  1  0  0  0  0
212172  1  0  0  0  0
214 61  1  0  0  0  0
216 60  1  0  0  0  0
M  RAD  8   5   2   8   2  10   2  11   2  13   2  14   2  15   2  16   2
M  RAD  8  17   2  18   2  19   2  20   2  22   2  23   2  30   2  31   2
M  RAD  8  34   2  35   2  45   2  46   2  47   2  48   2  53   2  54   2
M  RAD  8  55   2  56   2  57   2  59   2  62   2  64   2  65   2  66   2
M  RAD  8  67   2  68   2  69   2  70   2  71   2  72   2  73   2  74   2
M  RAD  8  75   2  76   2  77   2  80   2  81   2  82   2  83   2  84   2
M  RAD  8  85   2  86   2  87   2  88   2 101   2 102   2 103   2 104   2
M  RAD  8 105   2 106   2 107   2 108   2 109   2 110   2 111   2 112   2
M  RAD  8 114   2 115   2 118   2 119   2 129   2 130   2 131   2 132   2
M  RAD  8 133   2 136   2 137   2 140   3 141   3 161   2 162   3 163   3
M  RAD  8 164   2 165   2 166   3 167   3 168   3 169   3 172   3 174   3
M  RAD  6 175   3 190   2 191   2 201   2 205   2 208   2
M  END
