dataset/hoip/perov (1).xyz
 OpenBabel03082216293D

 10 10  0  0  0  0  0  0  0  0999 V2000
    3.8515    0.7155    1.9836 H   0  0  0  0  0  0  0  0  0  0  0  0
    2.0989    1.7487    5.5231 H   0  0  0  0  0  0  0  0  0  0  0  0
    3.9643    3.4815    5.2080 H   0  0  0  0  0  0  0  0  0  0  0  0
    5.2027    2.7552    2.8138 H   0  0  0  0  0  0  0  0  0  0  0  0
    1.9991    0.0775    3.5973 H   0  0  0  0  0  0  0  0  0  0  0  0
    3.7578    2.6899    4.5091 C   0  0  0  0  0  0  0  0  0  0  0  0
    4.3599    2.3366    3.3348 C   0  0  0  0  0  0  0  0  0  0  0  0
    2.7031    0.8866    3.7147 C   0  0  0  0  0  0  0  0  0  0  0  0
    2.7387    1.7698    4.7255 N   0  0  0  0  0  0  0  0  0  0  0  0
    3.6896    1.2120    2.8643 N   0  0  0  0  0  0  0  0  0  0  0  0
  1 10  1  0  0  0  0
  4  7  1  0  0  0  0
  5  8  1  0  0  0  0
  6  9  1  0  0  0  0
  6  3  1  0  0  0  0
  7  6  2  0  0  0  0
  8  9  1  0  0  0  0
  9  2  1  0  0  0  0
 10  7  1  0  0  0  0
 10  8  1  0  0  0  0
M  RAD  1   8   2
M  END
