dataset/hoip/perov (3).xyz
 OpenBabel03082216293D

 11 10  0  0  0  0  0  0  0  0999 V2000
    3.4408    2.0953    1.7485 H   0  0  0  0  0  0  0  0  0  0  0  0
    2.0455    3.1129    1.4939 H   0  0  0  0  0  0  0  0  0  0  0  0
    3.4971    2.3863    4.7672 H   0  0  0  0  0  0  0  0  0  0  0  0
    4.3822    3.8227    4.9101 H   0  0  0  0  0  0  0  0  0  0  0  0
    2.0502    1.9219    2.7826 H   0  0  0  0  0  0  0  0  0  0  0  0
    3.8387    4.3986    2.6260 H   0  0  0  0  0  0  0  0  0  0  0  0
    2.4122    4.2467    3.6428 H   0  0  0  0  0  0  0  0  0  0  0  0
    4.8490    2.5906    3.8596 H   0  0  0  0  0  0  0  0  0  0  0  0
    3.2148    3.7034    3.1679 C   0  0  0  0  0  0  0  0  0  0  0  0
    2.6593    2.6469    2.2546 C   0  0  0  0  0  0  0  0  0  0  0  0
    4.0514    3.0974    4.2632 N   0  0  0  0  0  0  0  0  0  0  0  0
  1 10  1  0  0  0  0
  2 10  1  0  0  0  0
  6  9  1  0  0  0  0
  8 11  1  0  0  0  0
  9  7  1  0  0  0  0
  9 11  1  0  0  0  0
 10  5  1  0  0  0  0
 10  9  1  0  0  0  0
 11  3  1  0  0  0  0
 11  4  1  0  0  0  0
M  END
