dataset/hoip/perov (6).xyz
 OpenBabel03082216293D

 11  9  0  0  0  0  0  0  0  0999 V2000
    4.3540    2.7423    4.2042 H   0  0  0  0  0  0  0  0  0  0  0  0
    4.8824    3.3002    2.6301 H   0  0  0  0  0  0  0  0  0  0  0  0
    3.1340    2.2671    0.6323 H   0  0  0  0  0  0  0  0  0  0  0  0
    1.7933    2.3827    1.6093 H   0  0  0  0  0  0  0  0  0  0  0  0
    4.3368    0.9675    2.3302 H   0  0  0  0  0  0  0  0  0  0  0  0
    3.8448    0.2728    4.8770 H   0  0  0  0  0  0  0  0  0  0  0  0
    2.8566    1.1088    3.3223 H   0  0  0  0  0  0  0  0  0  0  0  0
    2.3008    0.8956    1.0695 H   0  0  0  0  0  0  0  0  0  0  0  0
    3.5048    1.6088    2.6138 C   0  0  0  0  0  0  0  0  0  0  0  0
    4.0299    2.9154    3.1782 C   0  0  0  0  0  0  0  0  0  0  0  0
    2.6449    1.8139    1.4039 N   0  0  0  0  0  0  0  0  0  0  0  0
  2 10  1  0  0  0  0
  3 11  1  0  0  0  0
  5  9  1  0  0  0  0
  8 11  1  0  0  0  0
  9 10  1  0  0  0  0
  9  7  1  0  0  0  0
 10  1  1  0  0  0  0
 11  4  1  0  0  0  0
 11  9  1  0  0  0  0
M  RAD  2   6   2  10   2
M  END
