11

H	4.354033497485047	2.7423087871865786	4.204210979414076
H	4.882442605310736	3.3001513884803564	2.630087225024274
H	3.1339987648071626	2.267126179742623	0.6323042966829381
H	1.7933128958850586	2.382666878557216	1.6092881557043694
H	4.33680968971536	0.9675499863201372	2.3302430616763514
H	3.844830895817738	0.2728166390123351	4.8770016052389895
H	2.856557148619199	1.1087751994107038	3.322251869486639
H	2.300796530154102	0.8955693629646257	1.0694923139003252
C	3.5048166011106687	1.6088039647168588	2.6138034860548136
C	4.029874136317319	2.9154261423859853	3.1782399690978553
N	2.644906689618997	1.813900654730825	1.4038961763640645
