11

H	2.4865432757643875	1.2500844655612664	4.256360291942588
H	1.5790674426967646	2.716000169662522	4.598753244232962
H	3.3545762687300487	1.3098126478835819	1.351225047678698
H	2.477519941822086	2.4945537259326236	0.581474637952722
H	1.6543782360011787	3.4986214888583937	2.3727766205636533
H	0.8626568327228572	1.4695584751400204	3.582701079695097
H	3.3277693518096427	3.1716680580914005	2.850859548803934
H	1.6856166603315823	1.2362819876552027	1.3074180179438601
C	2.3590019129211743	2.7257155928073957	2.64291333196177
C	1.796320785418282	1.9759632723723446	3.8344838669297165
N	2.4942092815292383	1.8801421250317754	1.4061142545166594
