dataset/hoip/perov (5).xyz
 OpenBabel03082216293D

 11 10  0  0  0  0  0  0  0  0999 V2000
    2.0500    1.2785    3.1089 H   0  0  0  0  0  0  0  0  0  0  0  0
    2.8264    2.3881    4.2228 H   0  0  0  0  0  0  0  0  0  0  0  0
    1.6994    0.5679    6.7758 H   0  0  0  0  0  0  0  0  0  0  0  0
    0.5715    1.7759    7.0563 H   0  0  0  0  0  0  0  0  0  0  0  0
    0.4605    2.3963    4.7970 H   0  0  0  0  0  0  0  0  0  0  0  0
    2.9603    0.6515    4.4885 H   0  0  0  0  0  0  0  0  0  0  0  0
    0.3792    0.6439    4.8249 H   0  0  0  0  0  0  0  0  0  0  0  0
    2.1724    2.1066    6.6588 H   0  0  0  0  0  0  0  0  0  0  0  0
    1.0296    1.4919    4.9967 C   0  0  0  0  0  0  0  0  0  0  0  0
    2.2918    1.4445    4.1577 C   0  0  0  0  0  0  0  0  0  0  0  0
    1.3682    1.4961    6.4575 N   0  0  0  0  0  0  0  0  0  0  0  0
  1 10  1  0  0  0  0
  5  9  1  0  0  0  0
  7  9  1  0  0  0  0
  9 11  1  0  0  0  0
 10  2  1  0  0  0  0
 10  6  1  0  0  0  0
 10  9  1  0  0  0  0
 11  8  1  0  0  0  0
 11  3  1  0  0  0  0
 11  4  1  0  0  0  0
M  END
