dataset/hoip/perov (8).xyz
 OpenBabel03082216293D

 11 10  0  0  0  0  0  0  0  0999 V2000
    4.4324    1.3551    4.5771 H   0  0  0  0  0  0  0  0  0  0  0  0
    4.6159    2.8148    3.6133 H   0  0  0  0  0  0  0  0  0  0  0  0
    3.2527    0.7682    2.3787 H   0  0  0  0  0  0  0  0  0  0  0  0
    2.7570    2.1744    1.7576 H   0  0  0  0  0  0  0  0  0  0  0  0
    2.0086    1.5072    4.5382 H   0  0  0  0  0  0  0  0  0  0  0  0
    3.9952    2.8964    5.2747 H   0  0  0  0  0  0  0  0  0  0  0  0
    2.0371    3.0723    3.7703 H   0  0  0  0  0  0  0  0  0  0  0  0
    1.5990    1.0965    2.2752 H   0  0  0  0  0  0  0  0  0  0  0  0
    2.5705    2.1356    3.8542 C   0  0  0  0  0  0  0  0  0  0  0  0
    3.9896    2.3178    4.3511 C   0  0  0  0  0  0  0  0  0  0  0  0
    2.5266    1.4919    2.5001 N   0  0  0  0  0  0  0  0  0  0  0  0
  2 10  1  0  0  0  0
  3 11  1  0  0  0  0
  4 11  1  0  0  0  0
  7  9  1  0  0  0  0
  8 11  1  0  0  0  0
  9 10  1  0  0  0  0
  9  5  1  0  0  0  0
 10  1  1  0  0  0  0
 10  6  1  0  0  0  0
 11  9  1  0  0  0  0
M  END
