../../data/chem_data/cathub/UmVhY3Rpb246NDMxNTEz/COgas.xyz
 OpenBabel03192215503D

  2  1  0  0  0  0  0  0  0  0999 V2000
    7.0000    7.5000    8.0034 C   0  0  0  0  0  2  0  0  0  0  0  0
    7.0000    7.5000    9.1469 O   0  0  0  0  0  0  0  0  0  0  0  0
  1  2  2  0  0  0  0
M  END
